129211
     RDKit          2D

 28 29  0  0  1  0  0  0  0  0999 V2000
    4.5981    4.5950    0.0000 S   0  0  0  0  0  0  0  0  0  0  0  0
    8.0622   -2.4050    0.0000 O   0  0  0  0  0  0  0  0  0  0  0  0
    2.8660    3.5950    0.0000 O   0  0  0  0  0  0  0  0  0  0  0  0
    5.5981    4.5950    0.0000 O   0  0  0  0  0  0  0  0  0  0  0  0
    3.5981    4.5950    0.0000 O   0  0  0  0  0  0  0  0  0  0  0  0
    8.0622   -4.4050    0.0000 O   0  0  0  0  0  0  0  0  0  0  0  0
    7.1962    0.0950    0.0000 N   0  0  0  0  0  0  0  0  0  0  0  0
    4.5981    5.5950    0.0000 N   0  0  0  0  0  0  0  0  0  0  0  0
    6.3301    0.5950    0.0000 C   0  0  0  0  0  0  0  0  0  0  0  0
    6.3301    1.5950    0.0000 C   0  0  0  0  0  0  0  0  0  0  0  0
    5.4641    2.0950    0.0000 C   0  0  0  0  0  0  0  0  0  0  0  0
    5.4641    0.0950    0.0000 C   0  0  0  0  0  0  0  0  0  0  0  0
    7.1962   -0.9050    0.0000 C   0  0  0  0  0  0  0  0  0  0  0  0
    5.4641    3.0950    0.0000 C   0  0  0  0  0  0  0  0  0  0  0  0
    4.5981    3.5950    0.0000 C   0  0  0  0  0  0  0  0  0  0  0  0
    4.5981    1.5950    0.0000 C   0  0  0  0  0  0  0  0  0  0  0  0
    8.0622   -1.4050    0.0000 C   0  0  0  0  0  0  0  0  0  0  0  0
    3.7321    3.0950    0.0000 C   0  0  0  0  0  0  0  0  0  0  0  0
    3.7321    2.0950    0.0000 C   0  0  0  0  0  0  0  0  0  0  0  0
    8.9282   -2.9050    0.0000 C   0  0  0  0  0  0  0  0  0  0  0  0
    8.9282   -3.9050    0.0000 C   0  0  0  0  0  0  0  0  0  0  0  0
    9.7942   -2.4050    0.0000 C   0  0  0  0  0  0  0  0  0  0  0  0
    2.0000    3.0950    0.0000 C   0  0  0  0  0  0  0  0  0  0  0  0
    9.7942   -4.4050    0.0000 C   0  0  0  0  0  0  0  0  0  0  0  0
   10.6603   -2.9050    0.0000 C   0  0  0  0  0  0  0  0  0  0  0  0
   10.6603   -3.9050    0.0000 C   0  0  0  0  0  0  0  0  0  0  0  0
    8.0622   -5.4050    0.0000 C   0  0  0  0  0  0  0  0  0  0  0  0
    7.1962   -5.9050    0.0000 C   0  0  0  0  0  0  0  0  0  0  0  0
  1  4  2  0
  1  5  2  0
  1  8  1  0
  1 15  1  0
  2 17  1  0
  2 20  1  0
  3 18  1  0
  3 23  1  0
  6 21  1  0
  6 27  1  0
  9  7  1  0
  7 13  1  0
  9 10  1  0
  9 12  1  6
 10 11  1  0
 11 14  2  0
 11 16  1  0
 13 17  1  0
 14 15  1  0
 15 18  2  0
 16 19  2  0
 18 19  1  0
 20 21  2  0
 20 22  1  0
 21 24  1  0
 22 25  2  0
 24 26  2  0
 25 26  1  0
 27 28  1  0
M  END
>  <PUBCHEM_COMPOUND_CID>  (1) 
129211

>  <PUBCHEM_COMPOUND_CANONICALIZED>  (1) 
1

>  <PUBCHEM_CACTVS_COMPLEXITY>  (1) 
539

>  <PUBCHEM_CACTVS_HBOND_ACCEPTOR>  (1) 
7

>  <PUBCHEM_CACTVS_HBOND_DONOR>  (1) 
2

>  <PUBCHEM_CACTVS_ROTATABLE_BOND>  (1) 
11

>  <PUBCHEM_CACTVS_SUBSKEYS>  (1) 
AAADceB7OABAAAAAAAAAAAAAAAAAAAAAAAAwYAAAAAAAAAABQAAAHgQQQAAADCzh2AYyB4LABAKAAiBCAHBCCBAgIAAIiJoOiIgPJiKEsRuHOCKk0BGaqAeQwKAOIAAAgAAAYABAAAEAAADAAAAAAAAAAA==

>  <PUBCHEM_IUPAC_OPENEYE_NAME>  (1) 
5-[(2R)-2-[2-(2-ethoxyphenoxy)ethylamino]propyl]-2-methoxy-benzenesulfonamide

>  <PUBCHEM_IUPAC_CAS_NAME>  (1) 
5-[(2R)-2-[2-(2-ethoxyphenoxy)ethylamino]propyl]-2-methoxybenzenesulfonamide

>  <PUBCHEM_IUPAC_NAME_MARKUP>  (1) 
5-[(2<I>R</I>)-2-[2-(2-ethoxyphenoxy)ethylamino]propyl]-2-methoxybenzenesulfonamide

>  <PUBCHEM_IUPAC_NAME>  (1) 
5-[(2R)-2-[2-(2-ethoxyphenoxy)ethylamino]propyl]-2-methoxybenzenesulfonamide

>  <PUBCHEM_IUPAC_SYSTEMATIC_NAME>  (1) 
5-[(2R)-2-[2-(2-ethoxyphenoxy)ethylamino]propyl]-2-methoxy-benzenesulfonamide

>  <PUBCHEM_IUPAC_TRADITIONAL_NAME>  (1) 
5-[(2R)-2-[2-(2-ethoxyphenoxy)ethylamino]propyl]-2-methoxy-benzenesulfonamide

>  <PUBCHEM_IUPAC_INCHI>  (1) 
InChI=1S/C20H28N2O5S/c1-4-26-17-7-5-6-8-18(17)27-12-11-22-15(2)13-16-9-10-19(25-3)20(14-16)28(21,23)24/h5-10,14-15,22H,4,11-13H2,1-3H3,(H2,21,23,24)/t15-/m1/s1

>  <PUBCHEM_IUPAC_INCHIKEY>  (1) 
DRHKJLXJIQTDTD-OAHLLOKOSA-N

>  <PUBCHEM_XLOGP3_AA>  (1) 
2.7

>  <PUBCHEM_EXACT_MASS>  (1) 
408.17189317

>  <PUBCHEM_MOLECULAR_FORMULA>  (1) 
C20H28N2O5S

>  <PUBCHEM_MOLECULAR_WEIGHT>  (1) 
408.5

>  <PUBCHEM_SMILES>  (1) 
CCOC1=CC=CC=C1OCCN[C@H](C)CC2=CC(=C(C=C2)OC)S(=O)(=O)N

>  <PUBCHEM_CONNECTIVITY_SMILES>  (1) 
CCOC1=CC=CC=C1OCCNC(C)CC2=CC(=C(C=C2)OC)S(=O)(=O)N

>  <PUBCHEM_CACTVS_TPSA>  (1) 
108

>  <PUBCHEM_MONOISOTOPIC_WEIGHT>  (1) 
408.17189317

>  <PUBCHEM_TOTAL_CHARGE>  (1) 
0

>  <PUBCHEM_HEAVY_ATOM_COUNT>  (1) 
28

>  <PUBCHEM_ATOM_DEF_STEREO_COUNT>  (1) 
1

>  <PUBCHEM_ATOM_UDEF_STEREO_COUNT>  (1) 
0

>  <PUBCHEM_BOND_DEF_STEREO_COUNT>  (1) 
0

>  <PUBCHEM_BOND_UDEF_STEREO_COUNT>  (1) 
0

>  <PUBCHEM_ISOTOPIC_ATOM_COUNT>  (1) 
0

>  <PUBCHEM_COMPONENT_COUNT>  (1) 
1

>  <PUBCHEM_CACTVS_TAUTO_COUNT>  (1) 
-1

>  <PUBCHEM_COORDINATE_TYPE>  (1) 
1
5
255

>  <PUBCHEM_BONDANNOTATIONS>  (1) 
11  14  8
11  16  8
14  15  8
15  18  8
16  19  8
18  19  8
20  21  8
20  22  8
21  24  8
22  25  8
24  26  8
25  26  8
9  7  6

$$$$
149096
     RDKit          2D

 26 29  0  0  1  0  0  0  0  0999 V2000
    6.3301    2.6342    0.0000 F   0  0  0  0  0  0  0  0  0  0  0  0
    4.5541   -0.3726    0.0000 O   0  0  0  0  0  0  0  0  0  0  0  0
    8.9179    0.1458    0.0000 O   0  0  0  0  0  0  0  0  0  0  0  0
    8.9644   -2.8348    0.0000 O   0  0  0  0  0  0  0  0  0  0  0  0
    9.8008   -1.3181    0.0000 O   0  0  0  0  0  0  0  0  0  0  0  0
    4.5981    1.6342    0.0000 N   0  0  0  0  0  0  0  0  0  0  0  0
    6.3462   -1.4073    0.0000 N   0  0  0  0  0  0  0  0  0  0  0  0
    2.8660    2.6342    0.0000 N   0  0  0  0  0  0  0  0  0  0  0  0
    4.5981    2.6342    0.0000 C   0  0  0  0  0  0  0  0  0  0  0  0
    3.7321    1.1342    0.0000 C   0  0  0  0  0  0  0  0  0  0  0  0
    5.4482   -1.9351    0.0000 C   0  0  0  0  0  0  0  0  0  0  0  0
    5.4641    1.1342    0.0000 C   0  0  0  0  0  0  0  0  0  0  0  0
    6.3301   -0.3658    0.0000 C   0  0  0  0  0  0  0  0  0  0  0  0
    5.4641    0.1342    0.0000 C   0  0  0  0  0  0  0  0  0  0  0  0
    3.7321    3.1342    0.0000 C   0  0  0  0  0  0  0  0  0  0  0  0
    2.8660    1.6342    0.0000 C   0  0  0  0  0  0  0  0  0  0  0  0
    4.5461   -1.4142    0.0000 C   0  0  0  0  0  0  0  0  0  0  0  0
    7.1962    0.1342    0.0000 C   0  0  0  0  0  0  0  0  0  0  0  0
    6.3301    1.6342    0.0000 C   0  0  0  0  0  0  0  0  0  0  0  0
    7.2233   -1.8701    0.0000 C   0  0  0  0  0  0  0  0  0  0  0  0
    7.1962    1.1342    0.0000 C   0  0  0  0  0  0  0  0  0  0  0  0
    5.4520   -2.9351    0.0000 C   0  0  0  0  0  0  0  0  0  0  0  0
    8.0556   -0.3606    0.0000 C   0  0  0  0  0  0  0  0  0  0  0  0
    2.0000    3.1342    0.0000 C   0  0  0  0  0  0  0  0  0  0  0  0
    8.0691   -1.3522    0.0000 C   0  0  0  0  0  0  0  0  0  0  0  0
    8.9448   -1.8350    0.0000 C   0  0  0  0  0  0  0  0  0  0  0  0
  1 19  1  0
  2 14  1  0
  2 17  1  0
  3 23  2  0
  4 26  1  0
  5 26  2  0
  6  9  1  0
  6 10  1  0
  6 12  1  0
  7 11  1  0
  7 13  1  0
  7 20  1  0
  8 15  1  0
  8 16  1  0
  8 24  1  0
  9 15  1  0
 10 16  1  0
 11 17  1  0
 11 22  1  1
 12 14  1  0
 12 19  2  0
 13 14  2  0
 13 18  1  0
 18 21  2  0
 18 23  1  0
 19 21  1  0
 20 25  2  0
 23 25  1  0
 25 26  1  0
M  END
>  <PUBCHEM_COMPOUND_CID>  (2) 
149096

>  <PUBCHEM_COMPOUND_CANONICALIZED>  (2) 
1

>  <PUBCHEM_CACTVS_COMPLEXITY>  (2) 
634

>  <PUBCHEM_CACTVS_HBOND_ACCEPTOR>  (2) 
8

>  <PUBCHEM_CACTVS_HBOND_DONOR>  (2) 
1

>  <PUBCHEM_CACTVS_ROTATABLE_BOND>  (2) 
2

>  <PUBCHEM_CACTVS_SUBSKEYS>  (2) 
AAADceB7OQAAAAAAAAAAAAAAAAAAAAAAAAA8WIEAAAAAAACxAAAAHwAACAAADCzhmA4yzoMABgCIAqTWSACCCAAlIAAAiAENTMgOZj7M9NuXeajk4BHY+cea2bOeCAABAAQCEAAQAAIACAQgAAAAAAAAAA==

>  <PUBCHEM_IUPAC_OPENEYE_NAME>  (2) 
(2S)-7-fluoro-2-methyl-6-(4-methylpiperazin-1-yl)-10-oxo-4-oxa-1-azatricyclo[7.3.1.05,13]trideca-5(13),6,8,11-tetraene-11-carboxylic acid

>  <PUBCHEM_IUPAC_CAS_NAME>  (2) 
(2S)-7-fluoro-2-methyl-6-(4-methyl-1-piperazinyl)-10-oxo-4-oxa-1-azatricyclo[7.3.1.05,13]trideca-5(13),6,8,11-tetraene-11-carboxylic acid

>  <PUBCHEM_IUPAC_NAME_MARKUP>  (2) 
(2<I>S</I>)-7-fluoro-2-methyl-6-(4-methylpiperazin-1-yl)-10-oxo-4-oxa-1-azatricyclo[7.3.1.0<SUP>5,13</SUP>]trideca-5(13),6,8,11-tetraene-11-carboxylic acid

>  <PUBCHEM_IUPAC_NAME>  (2) 
(2S)-7-fluoro-2-methyl-6-(4-methylpiperazin-1-yl)-10-oxo-4-oxa-1-azatricyclo[7.3.1.05,13]trideca-5(13),6,8,11-tetraene-11-carboxylic acid

>  <PUBCHEM_IUPAC_SYSTEMATIC_NAME>  (2) 
(2S)-7-fluoranyl-2-methyl-6-(4-methylpiperazin-1-yl)-10-oxidanylidene-4-oxa-1-azatricyclo[7.3.1.05,13]trideca-5(13),6,8,11-tetraene-11-carboxylic acid

>  <PUBCHEM_IUPAC_TRADITIONAL_NAME>  (2) 
(2S)-7-fluoro-10-keto-2-methyl-6-(4-methylpiperazino)-4-oxa-1-azatricyclo[7.3.1.05,13]trideca-5(13),6,8,11-tetraene-11-carboxylic acid

>  <PUBCHEM_IUPAC_INCHI>  (2) 
InChI=1S/C18H20FN3O4/c1-10-9-26-17-14-11(16(23)12(18(24)25)8-22(10)14)7-13(19)15(17)21-5-3-20(2)4-6-21/h7-8,10H,3-6,9H2,1-2H3,(H,24,25)/t10-/m0/s1

>  <PUBCHEM_IUPAC_INCHIKEY>  (2) 
GSDSWSVVBLHKDQ-JTQLQIEISA-N

>  <PUBCHEM_XLOGP3>  (2) 
-0.4

>  <PUBCHEM_EXACT_MASS>  (2) 
361.14378429

>  <PUBCHEM_MOLECULAR_FORMULA>  (2) 
C18H20FN3O4

>  <PUBCHEM_MOLECULAR_WEIGHT>  (2) 
361.4

>  <PUBCHEM_SMILES>  (2) 
C[C@H]1COC2=C3N1C=C(C(=O)C3=CC(=C2N4CCN(CC4)C)F)C(=O)O

>  <PUBCHEM_CONNECTIVITY_SMILES>  (2) 
CC1COC2=C3N1C=C(C(=O)C3=CC(=C2N4CCN(CC4)C)F)C(=O)O

>  <PUBCHEM_CACTVS_TPSA>  (2) 
73.3

>  <PUBCHEM_MONOISOTOPIC_WEIGHT>  (2) 
361.14378429

>  <PUBCHEM_TOTAL_CHARGE>  (2) 
0

>  <PUBCHEM_HEAVY_ATOM_COUNT>  (2) 
26

>  <PUBCHEM_ATOM_DEF_STEREO_COUNT>  (2) 
1

>  <PUBCHEM_ATOM_UDEF_STEREO_COUNT>  (2) 
0

>  <PUBCHEM_BOND_DEF_STEREO_COUNT>  (2) 
0

>  <PUBCHEM_BOND_UDEF_STEREO_COUNT>  (2) 
0

>  <PUBCHEM_ISOTOPIC_ATOM_COUNT>  (2) 
0

>  <PUBCHEM_COMPONENT_COUNT>  (2) 
1

>  <PUBCHEM_CACTVS_TAUTO_COUNT>  (2) 
-1

>  <PUBCHEM_COORDINATE_TYPE>  (2) 
1
5
255

>  <PUBCHEM_BONDANNOTATIONS>  (2) 
11  22  5
12  14  8
12  19  8
13  14  8
13  18  8
18  21  8
18  23  8
19  21  8
20  25  8
23  25  8
7  13  8
7  20  8

$$$$
16129678
     RDKit          2D

115118  0  0  1  0  0  0  0  0999 V2000
   16.4388  -13.7209    0.0000 S   0  0  0  0  0  0  0  0  0  0  0  0
    6.4992   11.6209    0.0000 O   0  0  0  0  0  0  0  0  0  0  0  0
    7.5707    6.5364    0.0000 O   0  0  0  0  0  0  0  0  0  0  0  0
    9.4812    9.5942    0.0000 O   0  0  0  0  0  0  0  0  0  0  0  0
    9.5517   14.6714    0.0000 O   0  0  0  0  0  0  0  0  0  0  0  0
    7.2601    5.5859    0.0000 O   0  0  0  0  0  0  0  0  0  0  0  0
   17.3708  -10.8693    0.0000 O   0  0  0  0  0  0  0  0  0  0  0  0
   17.6349   -7.2734    0.0000 O   0  0  0  0  0  0  0  0  0  0  0  0
    6.4676   -5.2017    0.0000 O   0  0  0  0  0  0  0  0  0  0  0  0
    4.7748   -2.0183    0.0000 O   0  0  0  0  0  0  0  0  0  0  0  0
    4.8994    9.5136    0.0000 O   0  0  0  0  0  0  0  0  0  0  0  0
    9.7138   -3.6325    0.0000 O   0  0  0  0  0  0  0  0  0  0  0  0
   11.4067   -6.8159    0.0000 O   0  0  0  0  0  0  0  0  0  0  0  0
    6.6853    1.0395    0.0000 O   0  0  0  0  0  0  0  0  0  0  0  0
    6.9959    1.9900    0.0000 O   0  0  0  0  0  0  0  0  0  0  0  0
   14.6529   -5.2467    0.0000 O   0  0  0  0  0  0  0  0  0  0  0  0
   13.7674  -10.7437    0.0000 O   0  0  0  0  0  0  0  0  0  0  0  0
    8.9995   -0.2429    0.0000 O   0  0  0  0  0  0  0  0  0  0  0  0
    3.7032    3.0662    0.0000 O   0  0  0  0  0  0  0  0  0  0  0  0
    8.7400   13.0850    0.0000 N   0  0  0  0  0  0  0  0  0  0  0  0
    8.1921    8.4375    0.0000 N   0  0  0  0  0  0  0  0  0  0  0  0
    8.1455   11.0828    0.0000 N   0  0  0  0  0  0  0  0  0  0  0  0
    9.2171    5.9983    0.0000 N   0  0  0  0  0  0  0  0  0  0  0  0
   16.3457   -8.4302    0.0000 N   0  0  0  0  0  0  0  0  0  0  0  0
    7.6172    3.8911    0.0000 N   0  0  0  0  0  0  0  0  0  0  0  0
    6.4211   -2.5563    0.0000 N   0  0  0  0  0  0  0  0  0  0  0  0
   15.7244  -10.3312    0.0000 N   0  0  0  0  0  0  0  0  0  0  0  0
   11.4382   10.0066    0.0000 N   0  0  0  0  0  0  0  0  0  0  0  0
   10.0710   -5.3273    0.0000 N   0  0  0  0  0  0  0  0  0  0  0  0
    7.7568   -4.0449    0.0000 N   0  0  0  0  0  0  0  0  0  0  0  0
    5.3961   -0.1172    0.0000 N   0  0  0  0  0  0  0  0  0  0  0  0
   15.0101   -6.9416    0.0000 N   0  0  0  0  0  0  0  0  0  0  0  0
    5.3496    2.5281    0.0000 N   0  0  0  0  0  0  0  0  0  0  0  0
    4.8213   -6.2731    0.0000 N   0  0  0  0  0  0  0  0  0  0  0  0
   12.6959   -5.6592    0.0000 N   0  0  0  0  0  0  0  0  0  0  0  0
    4.5422   11.2085    0.0000 N   0  0  0  0  0  0  0  0  0  0  0  0
   17.6860   -4.6658    0.0000 N   0  0  0  0  0  0  0  0  0  0  0  0
   14.1246  -12.4385    0.0000 N   0  0  0  0  0  0  0  0  0  0  0  0
   12.7274   11.1634    0.0000 N   0  0  0  0  0  0  0  0  0  0  0  0
   18.8866   -5.7505    0.0000 N   0  0  0  0  0  0  0  0  0  0  0  0
   13.0846    9.4686    0.0000 N   0  0  0  0  0  0  0  0  0  0  0  0
    8.6423    1.4520    0.0000 N   0  0  0  0  0  0  0  0  0  0  0  0
    2.4141    1.9095    0.0000 N   0  0  0  0  0  0  0  0  0  0  0  0
    7.7884   12.7776    0.0000 C   0  0  0  0  0  0  0  0  0  0  0  0
    8.8599    7.6932    0.0000 C   0  0  0  0  0  0  0  0  0  0  0  0
    7.2020   13.5877    0.0000 C   0  0  0  0  0  0  0  0  0  0  0  0
    7.8349   10.1323    0.0000 C   0  0  0  0  0  0  0  0  0  0  0  0
    8.9064    5.0478    0.0000 C   0  0  0  0  0  0  0  0  0  0  0  0
    9.5743    4.3035    0.0000 C   0  0  0  0  0  0  0  0  0  0  0  0
    9.8384    7.8994    0.0000 C   0  0  0  0  0  0  0  0  0  0  0  0
    7.7912   14.3957    0.0000 C   0  0  0  0  0  0  0  0  0  0  0  0
   10.5528    4.5097    0.0000 C   0  0  0  0  0  0  0  0  0  0  0  0
    7.4777   11.8271    0.0000 C   0  0  0  0  0  0  0  0  0  0  0  0
    6.8564    9.9261    0.0000 C   0  0  0  0  0  0  0  0  0  0  0  0
    8.5492    6.7426    0.0000 C   0  0  0  0  0  0  0  0  0  0  0  0
    8.5027    9.3880    0.0000 C   0  0  0  0  0  0  0  0  0  0  0  0
   10.1491    8.8499    0.0000 C   0  0  0  0  0  0  0  0  0  0  0  0
    8.7417   14.0850    0.0000 C   0  0  0  0  0  0  0  0  0  0  0  0
   17.9921   -8.9683    0.0000 C   0  0  0  0  0  0  0  0  0  0  0  0
   17.0136   -9.1745    0.0000 C   0  0  0  0  0  0  0  0  0  0  0  0
   18.6599   -9.7126    0.0000 C   0  0  0  0  0  0  0  0  0  0  0  0
    7.9279    4.8416    0.0000 C   0  0  0  0  0  0  0  0  0  0  0  0
    6.1885   10.6704    0.0000 C   0  0  0  0  0  0  0  0  0  0  0  0
   11.2206    3.7654    0.0000 C   0  0  0  0  0  0  0  0  0  0  0  0
   10.8634    5.4603    0.0000 C   0  0  0  0  0  0  0  0  0  0  0  0
   11.1276    9.0561    0.0000 C   0  0  0  0  0  0  0  0  0  0  0  0
    6.1105   -3.5069    0.0000 C   0  0  0  0  0  0  0  0  0  0  0  0
    5.1320   -3.7131    0.0000 C   0  0  0  0  0  0  0  0  0  0  0  0
   11.0495   -5.1211    0.0000 C   0  0  0  0  0  0  0  0  0  0  0  0
   16.7029  -10.1250    0.0000 C   0  0  0  0  0  0  0  0  0  0  0  0
   15.9886   -6.7354    0.0000 C   0  0  0  0  0  0  0  0  0  0  0  0
    6.0639   -0.8615    0.0000 C   0  0  0  0  0  0  0  0  0  0  0  0
   11.3602   -4.1706    0.0000 C   0  0  0  0  0  0  0  0  0  0  0  0
    4.8213   -4.6636    0.0000 C   0  0  0  0  0  0  0  0  0  0  0  0
   19.6384   -9.5064    0.0000 C   0  0  0  0  0  0  0  0  0  0  0  0
   18.3493  -10.6631    0.0000 C   0  0  0  0  0  0  0  0  0  0  0  0
   16.6564   -7.4797    0.0000 C   0  0  0  0  0  0  0  0  0  0  0  0
    6.7783   -4.2512    0.0000 C   0  0  0  0  0  0  0  0  0  0  0  0
    8.4247   -4.7892    0.0000 C   0  0  0  0  0  0  0  0  0  0  0  0
    7.0424   -0.6553    0.0000 C   0  0  0  0  0  0  0  0  0  0  0  0
    5.7533   -1.8120    0.0000 C   0  0  0  0  0  0  0  0  0  0  0  0
    6.6388    3.6849    0.0000 C   0  0  0  0  0  0  0  0  0  0  0  0
   15.4138  -11.2817    0.0000 C   0  0  0  0  0  0  0  0  0  0  0  0
   16.2992   -5.7848    0.0000 C   0  0  0  0  0  0  0  0  0  0  0  0
    3.8751   -4.9683    0.0000 C   0  0  0  0  0  0  0  0  0  0  0  0
    5.2100   10.4642    0.0000 C   0  0  0  0  0  0  0  0  0  0  0  0
    5.0389    1.5776    0.0000 C   0  0  0  0  0  0  0  0  0  0  0  0
    9.4032   -4.5830    0.0000 C   0  0  0  0  0  0  0  0  0  0  0  0
    3.8751   -5.9683    0.0000 C   0  0  0  0  0  0  0  0  0  0  0  0
   11.7174   -5.8654    0.0000 C   0  0  0  0  0  0  0  0  0  0  0  0
    5.4049   -5.4683    0.0000 C   0  0  0  0  0  0  0  0  0  0  0  0
   16.0816  -12.0260    0.0000 C   0  0  0  0  0  0  0  0  0  0  0  0
   12.3387   -3.9644    0.0000 C   0  0  0  0  0  0  0  0  0  0  0  0
   10.6923   -3.4263    0.0000 C   0  0  0  0  0  0  0  0  0  0  0  0
    5.7068    0.8333    0.0000 C   0  0  0  0  0  0  0  0  0  0  0  0
    6.3281    2.7343    0.0000 C   0  0  0  0  0  0  0  0  0  0  0  0
    7.3531    0.2952    0.0000 C   0  0  0  0  0  0  0  0  0  0  0  0
   17.2777   -5.5786    0.0000 C   0  0  0  0  0  0  0  0  0  0  0  0
    4.0604    1.3714    0.0000 C   0  0  0  0  0  0  0  0  0  0  0  0
    8.1140   -5.7398    0.0000 C   0  0  0  0  0  0  0  0  0  0  0  0
   13.3637   -6.4035    0.0000 C   0  0  0  0  0  0  0  0  0  0  0  0
   14.3422   -6.1973    0.0000 C   0  0  0  0  0  0  0  0  0  0  0  0
    3.0090   -4.4683    0.0000 C   0  0  0  0  0  0  0  0  0  0  0  0
   14.4352  -11.4880    0.0000 C   0  0  0  0  0  0  0  0  0  0  0  0
    3.0090   -6.4683    0.0000 C   0  0  0  0  0  0  0  0  0  0  0  0
   15.7709  -12.9766    0.0000 C   0  0  0  0  0  0  0  0  0  0  0  0
   12.4167   10.2129    0.0000 C   0  0  0  0  0  0  0  0  0  0  0  0
    2.1430   -4.9683    0.0000 C   0  0  0  0  0  0  0  0  0  0  0  0
    2.1430   -5.9683    0.0000 C   0  0  0  0  0  0  0  0  0  0  0  0
    8.3316    0.5014    0.0000 C   0  0  0  0  0  0  0  0  0  0  0  0
   18.0197   -6.2490    0.0000 C   0  0  0  0  0  0  0  0  0  0  0  0
    3.3926    2.1157    0.0000 C   0  0  0  0  0  0  0  0  0  0  0  0
   18.6804   -4.7720    0.0000 C   0  0  0  0  0  0  0  0  0  0  0  0
   16.1281  -14.6714    0.0000 C   0  0  0  0  0  0  0  0  0  0  0  0
   13.6913    9.5964    0.0000 H   0  0  0  0  0  0  0  0  0  0  0  0
  1106  1  0
  1114  1  0
  2 53  2  0
  3 55  2  0
  4 56  2  0
  5 58  2  0
  6 62  2  0
  7 70  2  0
  8 77  2  0
  9 78  2  0
 10 81  2  0
 11 86  2  0
 12 88  2  0
 13 90  2  0
 14 95  2  0
 15 96  2  0
 16102  2  0
 17104  2  0
 18110  2  0
 19112  2  0
 20 44  1  0
 20 58  1  0
 21 45  1  0
 21 56  1  0
 22 47  1  0
 22 53  1  0
 23 48  1  0
 23 55  1  0
 24 60  1  0
 24 77  1  0
 25 62  1  0
 25 82  1  0
 26 67  1  0
 26 81  1  0
 27 70  1  0
 27 83  1  0
 28 66  1  0
 28107  1  0
 29 69  1  0
 29 88  1  0
 30 78  1  0
 30 79  1  0
 31 72  1  0
 31 95  1  0
 32 71  1  0
 32102  1  0
 33 87  1  0
 33 96  1  0
 34 89  1  0
 34 91  1  0
 35 90  1  0
 35101  1  0
 36 86  1  0
 37 98  1  0
 37113  1  0
 38104  1  0
 39107  1  0
 40111  1  0
 40113  2  0
 41107  2  0
 41115  1  0
 42110  1  0
 43112  1  0
 44 46  1  0
 44 53  1  0
 45 50  1  0
 45 55  1  0
 46 51  1  0
 47 54  1  0
 47 56  1  0
 48 49  1  0
 48 62  1  0
 49 52  1  0
 50 57  1  0
 51 58  1  0
 52 64  1  0
 52 65  1  0
 54 63  1  0
 57 66  1  0
 59 60  1  0
 59 61  1  0
 60 70  1  0
 61 75  1  0
 61 76  1  0
 63 86  1  0
 67 68  1  0
 67 78  1  0
 68 74  1  0
 69 73  1  0
 69 90  1  0
 71 77  1  0
 71 84  1  0
 72 80  1  0
 72 81  1  0
 73 93  1  0
 73 94  1  0
 74 85  1  0
 74 91  2  0
 79 88  1  0
 79100  1  0
 80 97  1  0
 82 96  1  0
 83 92  1  0
 83104  1  0
 84 98  1  0
 85 89  2  0
 85103  1  0
 87 95  1  0
 87 99  1  0
 89105  1  0
 92106  1  0
 97110  1  0
 98111  2  0
 99112  1  0
101102  1  0
103108  2  0
105109  2  0
108109  1  0
M  END
>  <PUBCHEM_COMPOUND_CID>  (3) 
16129678

>  <PUBCHEM_COMPOUND_CANONICALIZED>  (3) 
1

>  <PUBCHEM_CACTVS_COMPLEXITY>  (3) 
3410

>  <PUBCHEM_CACTVS_HBOND_ACCEPTOR>  (3) 
21

>  <PUBCHEM_CACTVS_HBOND_DONOR>  (3) 
23

>  <PUBCHEM_CACTVS_ROTATABLE_BOND>  (3) 
52

>  <PUBCHEM_CACTVS_SUBSKEYS>  (3) 
AAADcfB//gBAAAAAAAAAAAAAAAAAAWLFgAAwAAAAAAAAAFgB/AAAHgQQAAAADSjF3gS/0PbJkAioAzV3dACCgC2xErAJ2aG4dJiIaPrg2bGUIAholgLIyCcdi8COgAAAAAACAAAAAAAAAAQAAAAAAAAAAA==

>  <PUBCHEM_IUPAC_OPENEYE_NAME>  (3) 
N-[1-[[1-[[2-[[3-amino-1-[[4-amino-1-[[2-[[2-[[1-[[2-[[2-[[1-[(1-carbamoyl-3-methylsulfanyl-propyl)carbamoyl]-3-methyl-butyl]amino]-1-(1H-imidazol-5-ylmethyl)-2-oxo-ethyl]amino]-2-oxo-ethyl]carbamoyl]-2-methyl-propyl]amino]-1-methyl-2-oxo-ethyl]amino]-1-(1H-indol-3-ylmethyl)-2-oxo-ethyl]carbamoyl]-4-oxo-butyl]carbamoyl]-3-oxo-propyl]amino]-2-oxo-ethyl]carbamoyl]-3-methyl-butyl]carbamoyl]-4-guanidino-butyl]-2-[(5-oxopyrrolidine-2-carbonyl)amino]pentanediamide

>  <PUBCHEM_IUPAC_CAS_NAME>  (3) 
N-[1-[[1-[[2-[[4-amino-1-[[5-amino-1-[[1-[[1-[[1-[[2-[[1-[[1-[[1-amino-4-(methylthio)-1-oxobutan-2-yl]amino]-4-methyl-1-oxopentan-2-yl]amino]-3-(1H-imidazol-5-yl)-1-oxopropan-2-yl]amino]-2-oxoethyl]amino]-3-methyl-1-oxobutan-2-yl]amino]-1-oxopropan-2-yl]amino]-3-(1H-indol-3-yl)-1-oxopropan-2-yl]amino]-1,5-dioxopentan-2-yl]amino]-1,4-dioxobutan-2-yl]amino]-2-oxoethyl]amino]-4-methyl-1-oxopentan-2-yl]amino]-5-carbamimidamido-1-oxopentan-2-yl]-2-[[oxo-(5-oxo-2-pyrrolidinyl)methyl]amino]pentanediamide

>  <PUBCHEM_IUPAC_NAME_MARKUP>  (3) 
<I>N</I>-[1-[[1-[[2-[[4-amino-1-[[5-amino-1-[[1-[[1-[[1-[[2-[[1-[[1-[(1-amino-4-methylsulfanyl-1-oxobutan-2-yl)amino]-4-methyl-1-oxopentan-2-yl]amino]-3-(1<I>H</I>-imidazol-5-yl)-1-oxopropan-2-yl]amino]-2-oxoethyl]amino]-3-methyl-1-oxobutan-2-yl]amino]-1-oxopropan-2-yl]amino]-3-(1<I>H</I>-indol-3-yl)-1-oxopropan-2-yl]amino]-1,5-dioxopentan-2-yl]amino]-1,4-dioxobutan-2-yl]amino]-2-oxoethyl]amino]-4-methyl-1-oxopentan-2-yl]amino]-5-carbamimidamido-1-oxopentan-2-yl]-2-[(5-oxopyrrolidine-2-carbonyl)amino]pentanediamide

>  <PUBCHEM_IUPAC_NAME>  (3) 
N-[1-[[1-[[2-[[4-amino-1-[[5-amino-1-[[1-[[1-[[1-[[2-[[1-[[1-[(1-amino-4-methylsulfanyl-1-oxobutan-2-yl)amino]-4-methyl-1-oxopentan-2-yl]amino]-3-(1H-imidazol-5-yl)-1-oxopropan-2-yl]amino]-2-oxoethyl]amino]-3-methyl-1-oxobutan-2-yl]amino]-1-oxopropan-2-yl]amino]-3-(1H-indol-3-yl)-1-oxopropan-2-yl]amino]-1,5-dioxopentan-2-yl]amino]-1,4-dioxobutan-2-yl]amino]-2-oxoethyl]amino]-4-methyl-1-oxopentan-2-yl]amino]-5-carbamimidamido-1-oxopentan-2-yl]-2-[(5-oxopyrrolidine-2-carbonyl)amino]pentanediamide

>  <PUBCHEM_IUPAC_SYSTEMATIC_NAME>  (3) 
N-[1-[[1-[[2-[[4-azanyl-1-[[5-azanyl-1-[[1-[[1-[[1-[[2-[[1-[[1-[(1-azanyl-4-methylsulfanyl-1-oxidanylidene-butan-2-yl)amino]-4-methyl-1-oxidanylidene-pentan-2-yl]amino]-3-(1H-imidazol-5-yl)-1-oxidanylidene-propan-2-yl]amino]-2-oxidanylidene-ethyl]amino]-3-methyl-1-oxidanylidene-butan-2-yl]amino]-1-oxidanylidene-propan-2-yl]amino]-3-(1H-indol-3-yl)-1-oxidanylidene-propan-2-yl]amino]-1,5-bis(oxidanylidene)pentan-2-yl]amino]-1,4-bis(oxidanylidene)butan-2-yl]amino]-2-oxidanylidene-ethyl]amino]-4-methyl-1-oxidanylidene-pentan-2-yl]amino]-5-carbamimidamido-1-oxidanylidene-pentan-2-yl]-2-[(5-oxidanylidenepyrrolidin-2-yl)carbonylamino]pentanediamide

>  <PUBCHEM_IUPAC_TRADITIONAL_NAME>  (3) 
N-[1-[[1-[[2-[[3-amino-1-[[4-amino-1-[[2-[[2-[[1-[[2-[[2-[[1-[[1-carbamoyl-3-(methylthio)propyl]carbamoyl]-3-methyl-butyl]amino]-1-(1H-imidazol-5-ylmethyl)-2-keto-ethyl]amino]-2-keto-ethyl]carbamoyl]-2-methyl-propyl]amino]-2-keto-1-methyl-ethyl]amino]-1-(1H-indol-3-ylmethyl)-2-keto-ethyl]carbamoyl]-4-keto-butyl]carbamoyl]-3-keto-propyl]amino]-2-keto-ethyl]carbamoyl]-3-methyl-butyl]carbamoyl]-4-guanidino-butyl]-2-(pyroglutamoylamino)glutaramide

>  <PUBCHEM_IUPAC_INCHI>  (3) 
InChI=1S/C71H110N24O18S/c1-34(2)24-47(92-62(105)43(14-11-22-79-71(76)77)89-64(107)45(15-18-52(72)96)90-63(106)44-17-20-55(99)85-44)61(104)81-31-56(100)87-51(28-54(74)98)69(112)91-46(16-19-53(73)97)65(108)94-49(26-38-29-80-41-13-10-9-12-40(38)41)66(109)84-37(7)60(103)95-58(36(5)6)70(113)82-32-57(101)86-50(27-39-30-78-33-83-39)68(111)93-48(25-35(3)4)67(110)88-42(59(75)102)21-23-114-8/h9-10,12-13,29-30,33-37,42-51,58,80H,11,14-28,31-32H2,1-8H3,(H2,72,96)(H2,73,97)(H2,74,98)(H2,75,102)(H,78,83)(H,81,104)(H,82,113)(H,84,109)(H,85,99)(H,86,101)(H,87,100)(H,88,110)(H,89,107)(H,90,106)(H,91,112)(H,92,105)(H,93,111)(H,94,108)(H,95,103)(H4,76,77,79)

>  <PUBCHEM_IUPAC_INCHIKEY>  (3) 
QXZBMSIDSOZZHK-UHFFFAOYSA-N

>  <PUBCHEM_XLOGP3_AA>  (3) 
-4.4

>  <PUBCHEM_EXACT_MASS>  (3) 
1618.81506393

>  <PUBCHEM_MOLECULAR_FORMULA>  (3) 
C71H110N24O18S

>  <PUBCHEM_MOLECULAR_WEIGHT>  (3) 
1619.9

>  <PUBCHEM_SMILES>  (3) 
CC(C)CC(C(=O)NCC(=O)NC(CC(=O)N)C(=O)NC(CCC(=O)N)C(=O)NC(CC1=CNC2=CC=CC=C21)C(=O)NC(C)C(=O)NC(C(C)C)C(=O)NCC(=O)NC(CC3=CN=CN3)C(=O)NC(CC(C)C)C(=O)NC(CCSC)C(=O)N)NC(=O)C(CCCNC(=N)N)NC(=O)C(CCC(=O)N)NC(=O)C4CCC(=O)N4

>  <PUBCHEM_CONNECTIVITY_SMILES>  (3) 
CC(C)CC(C(=O)NCC(=O)NC(CC(=O)N)C(=O)NC(CCC(=O)N)C(=O)NC(CC1=CNC2=CC=CC=C21)C(=O)NC(C)C(=O)NC(C(C)C)C(=O)NCC(=O)NC(CC3=CN=CN3)C(=O)NC(CC(C)C)C(=O)NC(CCSC)C(=O)N)NC(=O)C(CCCNC(=N)N)NC(=O)C(CCC(=O)N)NC(=O)C4CCC(=O)N4

>  <PUBCHEM_CACTVS_TPSA>  (3) 
711

>  <PUBCHEM_MONOISOTOPIC_WEIGHT>  (3) 
1618.81506393

>  <PUBCHEM_TOTAL_CHARGE>  (3) 
0

>  <PUBCHEM_HEAVY_ATOM_COUNT>  (3) 
114

>  <PUBCHEM_ATOM_DEF_STEREO_COUNT>  (3) 
0

>  <PUBCHEM_ATOM_UDEF_STEREO_COUNT>  (3) 
12

>  <PUBCHEM_BOND_DEF_STEREO_COUNT>  (3) 
0

>  <PUBCHEM_BOND_UDEF_STEREO_COUNT>  (3) 
0

>  <PUBCHEM_ISOTOPIC_ATOM_COUNT>  (3) 
0

>  <PUBCHEM_COMPONENT_COUNT>  (3) 
1

>  <PUBCHEM_CACTVS_TAUTO_COUNT>  (3) 
-1

>  <PUBCHEM_COORDINATE_TYPE>  (3) 
1
5
255

>  <PUBCHEM_BONDANNOTATIONS>  (3) 
103  108  8
105  109  8
108  109  8
34  89  8
34  91  8
37  113  8
37  98  8
40  111  8
40  113  8
44  53  3
45  50  3
47  54  3
48  49  3
60  59  3
67  68  3
69  73  3
71  84  3
72  80  3
74  85  8
74  91  8
79  100  3
83  92  3
85  103  8
85  89  8
87  99  3
89  105  8
98  111  8

$$$$
1983
     RDKit          2D

 11 11  0  0  0  0  0  0  0  0999 V2000
    2.8660   -2.5950    0.0000 O   0  0  0  0  0  0  0  0  0  0  0  0
    4.5981    1.4050    0.0000 O   0  0  0  0  0  0  0  0  0  0  0  0
    2.8660    1.4050    0.0000 N   0  0  0  0  0  0  0  0  0  0  0  0
    2.8660    0.4050    0.0000 C   0  0  0  0  0  0  0  0  0  0  0  0
    2.0000   -0.0950    0.0000 C   0  0  0  0  0  0  0  0  0  0  0  0
    3.7321   -0.0950    0.0000 C   0  0  0  0  0  0  0  0  0  0  0  0
    2.0000   -1.0950    0.0000 C   0  0  0  0  0  0  0  0  0  0  0  0
    3.7321   -1.0950    0.0000 C   0  0  0  0  0  0  0  0  0  0  0  0
    2.8660   -1.5950    0.0000 C   0  0  0  0  0  0  0  0  0  0  0  0
    3.7321    1.9050    0.0000 C   0  0  0  0  0  0  0  0  0  0  0  0
    3.7321    2.9050    0.0000 C   0  0  0  0  0  0  0  0  0  0  0  0
  1  9  1  0
  2 10  2  0
  3  4  1  0
  3 10  1  0
  4  5  2  0
  4  6  1  0
  5  7  1  0
  6  8  2  0
  7  9  2  0
  8  9  1  0
 10 11  1  0
M  END
>  <PUBCHEM_COMPOUND_CID>  (4) 
1983

>  <PUBCHEM_COMPOUND_CANONICALIZED>  (4) 
1

>  <PUBCHEM_CACTVS_COMPLEXITY>  (4) 
139

>  <PUBCHEM_CACTVS_HBOND_ACCEPTOR>  (4) 
2

>  <PUBCHEM_CACTVS_HBOND_DONOR>  (4) 
2

>  <PUBCHEM_CACTVS_ROTATABLE_BOND>  (4) 
1

>  <PUBCHEM_CACTVS_SUBSKEYS>  (4) 
AAADccByMAAAAAAAAAAAAAAAAAAAAAAAAAAwAAAAAAAAAAABAAAAHgAQCAAACAyBkAAyxoLAAgCIACVSUACCAAAhIgAIiAAGbIgIJiLCkZOEcAhk1BHI2AewQAAAAEAAAAAAAAAAgAAAAAAAAAAAAAAAAA==

>  <PUBCHEM_IUPAC_OPENEYE_NAME>  (4) 
N-(4-hydroxyphenyl)acetamide

>  <PUBCHEM_IUPAC_CAS_NAME>  (4) 
N-(4-hydroxyphenyl)acetamide

>  <PUBCHEM_IUPAC_NAME_MARKUP>  (4) 
<I>N</I>-(4-hydroxyphenyl)acetamide

>  <PUBCHEM_IUPAC_NAME>  (4) 
N-(4-hydroxyphenyl)acetamide

>  <PUBCHEM_IUPAC_SYSTEMATIC_NAME>  (4) 
N-(4-hydroxyphenyl)ethanamide

>  <PUBCHEM_IUPAC_TRADITIONAL_NAME>  (4) 
N-(4-hydroxyphenyl)acetamide

>  <PUBCHEM_IUPAC_INCHI>  (4) 
InChI=1S/C8H9NO2/c1-6(10)9-7-2-4-8(11)5-3-7/h2-5,11H,1H3,(H,9,10)

>  <PUBCHEM_IUPAC_INCHIKEY>  (4) 
RZVAJINKPMORJF-UHFFFAOYSA-N

>  <PUBCHEM_XLOGP3>  (4) 
0.5

>  <PUBCHEM_EXACT_MASS>  (4) 
151.063328530

>  <PUBCHEM_MOLECULAR_FORMULA>  (4) 
C8H9NO2

>  <PUBCHEM_MOLECULAR_WEIGHT>  (4) 
151.16

>  <PUBCHEM_SMILES>  (4) 
CC(=O)NC1=CC=C(C=C1)O

>  <PUBCHEM_CONNECTIVITY_SMILES>  (4) 
CC(=O)NC1=CC=C(C=C1)O

>  <PUBCHEM_CACTVS_TPSA>  (4) 
49.3

>  <PUBCHEM_MONOISOTOPIC_WEIGHT>  (4) 
151.063328530

>  <PUBCHEM_TOTAL_CHARGE>  (4) 
0

>  <PUBCHEM_HEAVY_ATOM_COUNT>  (4) 
11

>  <PUBCHEM_ATOM_DEF_STEREO_COUNT>  (4) 
0

>  <PUBCHEM_ATOM_UDEF_STEREO_COUNT>  (4) 
0

>  <PUBCHEM_BOND_DEF_STEREO_COUNT>  (4) 
0

>  <PUBCHEM_BOND_UDEF_STEREO_COUNT>  (4) 
0

>  <PUBCHEM_ISOTOPIC_ATOM_COUNT>  (4) 
0

>  <PUBCHEM_COMPONENT_COUNT>  (4) 
1

>  <PUBCHEM_CACTVS_TAUTO_COUNT>  (4) 
-1

>  <PUBCHEM_COORDINATE_TYPE>  (4) 
1
5
255

>  <PUBCHEM_BONDANNOTATIONS>  (4) 
4  5  8
4  6  8
5  7  8
6  8  8
7  9  8
8  9  8

$$$$
2083
     RDKit          2D

 17 17  0  0  1  0  0  0  0  0999 V2000
    4.2690    1.2220    0.0000 O   0  0  0  0  0  0  0  0  0  0  0  0
    5.1350   -3.2780    0.0000 O   0  0  0  0  0  0  0  0  0  0  0  0
    2.5369   -1.7780    0.0000 O   0  0  0  0  0  0  0  0  0  0  0  0
    6.0010    2.2220    0.0000 N   0  0  0  0  0  0  0  0  0  0  0  0
    6.8671    2.7220    0.0000 C   0  0  0  0  0  0  0  0  0  0  0  0
    6.0010    1.2220    0.0000 C   0  0  0  0  0  0  0  0  0  0  0  0
    5.1350    0.7220    0.0000 C   0  0  0  0  0  0  0  0  0  0  0  0
    7.7331    3.2220    0.0000 C   0  0  0  0  0  0  0  0  0  0  0  0
    6.3671    3.5880    0.0000 C   0  0  0  0  0  0  0  0  0  0  0  0
    7.3671    1.8560    0.0000 C   0  0  0  0  0  0  0  0  0  0  0  0
    5.1350   -0.2780    0.0000 C   0  0  0  0  0  0  0  0  0  0  0  0
    4.2690   -0.7780    0.0000 C   0  0  0  0  0  0  0  0  0  0  0  0
    6.0010   -0.7780    0.0000 C   0  0  0  0  0  0  0  0  0  0  0  0
    4.2690   -1.7780    0.0000 C   0  0  0  0  0  0  0  0  0  0  0  0
    5.1350   -2.2780    0.0000 C   0  0  0  0  0  0  0  0  0  0  0  0
    6.0010   -1.7780    0.0000 C   0  0  0  0  0  0  0  0  0  0  0  0
    3.4030   -2.2780    0.0000 C   0  0  0  0  0  0  0  0  0  0  0  0
  1  7  1  0
  2 15  1  0
  3 17  1  0
  4  5  1  0
  4  6  1  0
  5  8  1  0
  5  9  1  0
  5 10  1  0
  6  7  1  0
  7 11  1  0
 11 12  2  0
 11 13  1  0
 12 14  1  0
 13 16  2  0
 14 15  2  0
 14 17  1  0
 15 16  1  0
M  END
>  <PUBCHEM_COMPOUND_CID>  (5) 
2083

>  <PUBCHEM_COMPOUND_CANONICALIZED>  (5) 
1

>  <PUBCHEM_CACTVS_COMPLEXITY>  (5) 
227

>  <PUBCHEM_CACTVS_HBOND_ACCEPTOR>  (5) 
4

>  <PUBCHEM_CACTVS_HBOND_DONOR>  (5) 
4

>  <PUBCHEM_CACTVS_ROTATABLE_BOND>  (5) 
5

>  <PUBCHEM_CACTVS_SUBSKEYS>  (5) 
AAADceByMAAAAAAAAAAAAAAAAAAAAAAAAAAwAAAAAAAAAAABAAAAHgAQCAAADJzhmAYyBoLAAgCAAiBCAAACAAAgIAAIiIAOCIgKNyKCkROEcAAl0BGYmAeQ4OQOIAACAAAIAABAAAQAABAAAAAAAAAAAA==

>  <PUBCHEM_IUPAC_OPENEYE_NAME>  (5) 
4-[2-(tert-butylamino)-1-hydroxy-ethyl]-2-(hydroxymethyl)phenol

>  <PUBCHEM_IUPAC_CAS_NAME>  (5) 
4-[2-(tert-butylamino)-1-hydroxyethyl]-2-(hydroxymethyl)phenol

>  <PUBCHEM_IUPAC_NAME_MARKUP>  (5) 
4-[2-(<I>tert</I>-butylamino)-1-hydroxyethyl]-2-(hydroxymethyl)phenol

>  <PUBCHEM_IUPAC_NAME>  (5) 
4-[2-(tert-butylamino)-1-hydroxyethyl]-2-(hydroxymethyl)phenol

>  <PUBCHEM_IUPAC_SYSTEMATIC_NAME>  (5) 
4-[2-(tert-butylamino)-1-oxidanyl-ethyl]-2-(hydroxymethyl)phenol

>  <PUBCHEM_IUPAC_TRADITIONAL_NAME>  (5) 
4-[2-(tert-butylamino)-1-hydroxy-ethyl]-2-methylol-phenol

>  <PUBCHEM_IUPAC_INCHI>  (5) 
InChI=1S/C13H21NO3/c1-13(2,3)14-7-12(17)9-4-5-11(16)10(6-9)8-15/h4-6,12,14-17H,7-8H2,1-3H3

>  <PUBCHEM_IUPAC_INCHIKEY>  (5) 
NDAUXUAQIAJITI-UHFFFAOYSA-N

>  <PUBCHEM_XLOGP3>  (5) 
0.3

>  <PUBCHEM_EXACT_MASS>  (5) 
239.15214353

>  <PUBCHEM_MOLECULAR_FORMULA>  (5) 
C13H21NO3

>  <PUBCHEM_MOLECULAR_WEIGHT>  (5) 
239.31

>  <PUBCHEM_SMILES>  (5) 
CC(C)(C)NCC(C1=CC(=C(C=C1)O)CO)O

>  <PUBCHEM_CONNECTIVITY_SMILES>  (5) 
CC(C)(C)NCC(C1=CC(=C(C=C1)O)CO)O

>  <PUBCHEM_CACTVS_TPSA>  (5) 
72.7

>  <PUBCHEM_MONOISOTOPIC_WEIGHT>  (5) 
239.15214353

>  <PUBCHEM_TOTAL_CHARGE>  (5) 
0

>  <PUBCHEM_HEAVY_ATOM_COUNT>  (5) 
17

>  <PUBCHEM_ATOM_DEF_STEREO_COUNT>  (5) 
0

>  <PUBCHEM_ATOM_UDEF_STEREO_COUNT>  (5) 
1

>  <PUBCHEM_BOND_DEF_STEREO_COUNT>  (5) 
0

>  <PUBCHEM_BOND_UDEF_STEREO_COUNT>  (5) 
0

>  <PUBCHEM_ISOTOPIC_ATOM_COUNT>  (5) 
0

>  <PUBCHEM_COMPONENT_COUNT>  (5) 
1

>  <PUBCHEM_CACTVS_TAUTO_COUNT>  (5) 
-1

>  <PUBCHEM_COORDINATE_TYPE>  (5) 
1
5
255

>  <PUBCHEM_BONDANNOTATIONS>  (5) 
7  1  3
11  12  8
11  13  8
12  14  8
13  16  8
14  15  8
15  16  8

$$$$
2118
     RDKit          2D

 22 25  0  0  0  0  0  0  0  0999 V2000
    2.0000   -0.2813    0.0000 Cl  0  0  0  0  0  0  0  0  0  0  0  0
    5.8374   -1.6083    0.0000 N   0  0  0  0  0  0  0  0  0  0  0  0
    6.3374    0.5824    0.0000 N   0  0  0  0  0  0  0  0  0  0  0  0
    7.4235   -1.8947    0.0000 N   0  0  0  0  0  0  0  0  0  0  0  0
    6.9517   -2.7696    0.0000 N   0  0  0  0  0  0  0  0  0  0  0  0
    4.9365   -1.1744    0.0000 C   0  0  0  0  0  0  0  0  0  0  0  0
    4.7139   -0.1994    0.0000 C   0  0  0  0  0  0  0  0  0  0  0  0
    6.7384   -1.1744    0.0000 C   0  0  0  0  0  0  0  0  0  0  0  0
    5.3374    0.5824    0.0000 C   0  0  0  0  0  0  0  0  0  0  0  0
    6.9609   -0.1994    0.0000 C   0  0  0  0  0  0  0  0  0  0  0  0
    5.9734   -2.5930    0.0000 C   0  0  0  0  0  0  0  0  0  0  0  0
    4.1839   -1.8946    0.0000 C   0  0  0  0  0  0  0  0  0  0  0  0
    3.7234    0.1229    0.0000 C   0  0  0  0  0  0  0  0  0  0  0  0
    4.9036    1.4834    0.0000 C   0  0  0  0  0  0  0  0  0  0  0  0
    3.1862   -1.5952    0.0000 C   0  0  0  0  0  0  0  0  0  0  0  0
    2.9544   -0.5797    0.0000 C   0  0  0  0  0  0  0  0  0  0  0  0
    5.2518   -3.2853    0.0000 C   0  0  0  0  0  0  0  0  0  0  0  0
    5.4669    2.3096    0.0000 C   0  0  0  0  0  0  0  0  0  0  0  0
    3.9063    1.5581    0.0000 C   0  0  0  0  0  0  0  0  0  0  0  0
    5.0330    3.2106    0.0000 C   0  0  0  0  0  0  0  0  0  0  0  0
    3.4725    2.4591    0.0000 C   0  0  0  0  0  0  0  0  0  0  0  0
    4.0358    3.2853    0.0000 C   0  0  0  0  0  0  0  0  0  0  0  0
  1 16  1  0
  2  6  1  0
  2  8  1  0
  2 11  1  0
  3  9  2  0
  3 10  1  0
  4  5  1  0
  4  8  2  0
  5 11  2  0
  6  7  2  0
  6 12  1  0
  7  9  1  0
  7 13  1  0
  8 10  1  0
  9 14  1  0
 11 17  1  0
 12 15  2  0
 13 16  2  0
 14 18  2  0
 14 19  1  0
 15 16  1  0
 18 20  1  0
 19 21  2  0
 20 22  2  0
 21 22  1  0
M  END
>  <PUBCHEM_COMPOUND_CID>  (6) 
2118

>  <PUBCHEM_COMPOUND_CANONICALIZED>  (6) 
1

>  <PUBCHEM_CACTVS_COMPLEXITY>  (6) 
434

>  <PUBCHEM_CACTVS_HBOND_ACCEPTOR>  (6) 
3

>  <PUBCHEM_CACTVS_HBOND_DONOR>  (6) 
0

>  <PUBCHEM_CACTVS_ROTATABLE_BOND>  (6) 
1

>  <PUBCHEM_CACTVS_SUBSKEYS>  (6) 
AAADccB7gAAEAAAAAAAAAAAAAAAAAWAAAAAwYAAABAAAAACB0AAAHAIIAAAADArBGyQz0IcMEACiAyZiZACSgCshB6AdiAAwZpiIaKLBm5GUIAhgiALIyCcQgMAOAABAIAACAAAAAIBAAAQAAAAAAAAAAA==

>  <PUBCHEM_IUPAC_OPENEYE_NAME>  (6) 
8-chloro-1-methyl-6-phenyl-4H-[1,2,4]triazolo[4,3-a][1,4]benzodiazepine

>  <PUBCHEM_IUPAC_CAS_NAME>  (6) 
8-chloro-1-methyl-6-phenyl-4H-[1,2,4]triazolo[4,3-a][1,4]benzodiazepine

>  <PUBCHEM_IUPAC_NAME_MARKUP>  (6) 
8-chloro-1-methyl-6-phenyl-4<I>H</I>-[1,2,4]triazolo[4,3-a][1,4]benzodiazepine

>  <PUBCHEM_IUPAC_NAME>  (6) 
8-chloro-1-methyl-6-phenyl-4H-[1,2,4]triazolo[4,3-a][1,4]benzodiazepine

>  <PUBCHEM_IUPAC_SYSTEMATIC_NAME>  (6) 
8-chloranyl-1-methyl-6-phenyl-4H-[1,2,4]triazolo[4,3-a][1,4]benzodiazepine

>  <PUBCHEM_IUPAC_TRADITIONAL_NAME>  (6) 
8-chloro-1-methyl-6-phenyl-4H-[1,2,4]triazolo[4,3-a][1,4]benzodiazepine

>  <PUBCHEM_IUPAC_INCHI>  (6) 
InChI=1S/C17H13ClN4/c1-11-20-21-16-10-19-17(12-5-3-2-4-6-12)14-9-13(18)7-8-15(14)22(11)16/h2-9H,10H2,1H3

>  <PUBCHEM_IUPAC_INCHIKEY>  (6) 
VREFGVBLTWBCJP-UHFFFAOYSA-N

>  <PUBCHEM_XLOGP3>  (6) 
2.1

>  <PUBCHEM_EXACT_MASS>  (6) 
308.0828741

>  <PUBCHEM_MOLECULAR_FORMULA>  (6) 
C17H13ClN4

>  <PUBCHEM_MOLECULAR_WEIGHT>  (6) 
308.8

>  <PUBCHEM_SMILES>  (6) 
CC1=NN=C2N1C3=C(C=C(C=C3)Cl)C(=NC2)C4=CC=CC=C4

>  <PUBCHEM_CONNECTIVITY_SMILES>  (6) 
CC1=NN=C2N1C3=C(C=C(C=C3)Cl)C(=NC2)C4=CC=CC=C4

>  <PUBCHEM_CACTVS_TPSA>  (6) 
43.1

>  <PUBCHEM_MONOISOTOPIC_WEIGHT>  (6) 
308.0828741

>  <PUBCHEM_TOTAL_CHARGE>  (6) 
0

>  <PUBCHEM_HEAVY_ATOM_COUNT>  (6) 
22

>  <PUBCHEM_ATOM_DEF_STEREO_COUNT>  (6) 
0

>  <PUBCHEM_ATOM_UDEF_STEREO_COUNT>  (6) 
0

>  <PUBCHEM_BOND_DEF_STEREO_COUNT>  (6) 
0

>  <PUBCHEM_BOND_UDEF_STEREO_COUNT>  (6) 
0

>  <PUBCHEM_ISOTOPIC_ATOM_COUNT>  (6) 
0

>  <PUBCHEM_COMPONENT_COUNT>  (6) 
1

>  <PUBCHEM_CACTVS_TAUTO_COUNT>  (6) 
-1

>  <PUBCHEM_COORDINATE_TYPE>  (6) 
1
5
255

>  <PUBCHEM_BONDANNOTATIONS>  (6) 
12  15  8
13  16  8
14  18  8
14  19  8
15  16  8
18  20  8
19  21  8
2  11  8
2  8  8
20  22  8
21  22  8
4  5  8
4  8  8
5  11  8
6  12  8
6  7  8
7  13  8

$$$$
2162
     RDKit          2D

 28 29  0  0  1  0  0  0  0  0999 V2000
    8.1810    2.9837    0.0000 Cl  0  0  0  0  0  0  0  0  0  0  0  0
    4.5981   -1.6900    0.0000 O   0  0  0  0  0  0  0  0  0  0  0  0
    3.7321    0.8100    0.0000 O   0  0  0  0  0  0  0  0  0  0  0  0
    8.9282    0.8100    0.0000 O   0  0  0  0  0  0  0  0  0  0  0  0
    4.5981    2.3100    0.0000 O   0  0  0  0  0  0  0  0  0  0  0  0
    8.7050    2.0760    0.0000 O   0  0  0  0  0  0  0  0  0  0  0  0
    6.3301   -0.6900    0.0000 N   0  0  0  0  0  0  0  0  0  0  0  0
    2.8660   -3.6900    0.0000 N   0  0  0  0  0  0  0  0  0  0  0  0
    6.3301    1.3100    0.0000 C   0  0  0  0  0  0  0  0  0  0  0  0
    5.4641    0.8100    0.0000 C   0  0  0  0  0  0  0  0  0  0  0  0
    7.1962    0.8100    0.0000 C   0  0  0  0  0  0  0  0  0  0  0  0
    5.4641   -0.1900    0.0000 C   0  0  0  0  0  0  0  0  0  0  0  0
    7.1962   -0.1900    0.0000 C   0  0  0  0  0  0  0  0  0  0  0  0
    6.3301    2.3100    0.0000 C   0  0  0  0  0  0  0  0  0  0  0  0
    4.5981   -0.6900    0.0000 C   0  0  0  0  0  0  0  0  0  0  0  0
    4.5981    1.3100    0.0000 C   0  0  0  0  0  0  0  0  0  0  0  0
    8.0622   -0.6900    0.0000 C   0  0  0  0  0  0  0  0  0  0  0  0
    8.0622    1.3100    0.0000 C   0  0  0  0  0  0  0  0  0  0  0  0
    7.1962    2.8100    0.0000 C   0  0  0  0  0  0  0  0  0  0  0  0
    5.4641    2.8100    0.0000 C   0  0  0  0  0  0  0  0  0  0  0  0
    7.1962    3.8100    0.0000 C   0  0  0  0  0  0  0  0  0  0  0  0
    5.4641    3.8100    0.0000 C   0  0  0  0  0  0  0  0  0  0  0  0
    6.3301    4.3100    0.0000 C   0  0  0  0  0  0  0  0  0  0  0  0
    3.7321   -2.1900    0.0000 C   0  0  0  0  0  0  0  0  0  0  0  0
    2.8660    1.3100    0.0000 C   0  0  0  0  0  0  0  0  0  0  0  0
    3.7321   -3.1900    0.0000 C   0  0  0  0  0  0  0  0  0  0  0  0
    9.7942    1.3100    0.0000 C   0  0  0  0  0  0  0  0  0  0  0  0
    2.0000    0.8100    0.0000 C   0  0  0  0  0  0  0  0  0  0  0  0
  1 19  1  0
  2 15  1  0
  2 24  1  0
  3 16  1  0
  3 25  1  0
  4 18  1  0
  4 27  1  0
  5 16  2  0
  6 18  2  0
  7 12  1  0
  7 13  1  0
  8 26  1  0
  9 10  1  0
  9 11  1  0
  9 14  1  0
 10 12  2  0
 10 16  1  0
 11 13  2  0
 11 18  1  0
 12 15  1  0
 13 17  1  0
 14 19  2  0
 14 20  1  0
 19 21  1  0
 20 22  2  0
 21 23  2  0
 22 23  1  0
 24 26  1  0
 25 28  1  0
M  END
>  <PUBCHEM_COMPOUND_CID>  (7) 
2162

>  <PUBCHEM_COMPOUND_CANONICALIZED>  (7) 
1

>  <PUBCHEM_CACTVS_COMPLEXITY>  (7) 
647

>  <PUBCHEM_CACTVS_HBOND_ACCEPTOR>  (7) 
7

>  <PUBCHEM_CACTVS_HBOND_DONOR>  (7) 
2

>  <PUBCHEM_CACTVS_ROTATABLE_BOND>  (7) 
10

>  <PUBCHEM_CACTVS_SUBSKEYS>  (7) 
AAADceB7OAAEAAAAAAAAAAAAAAAAAAAAAAAwQAAAAAAAAAABAAAAHgIQAAAADQrhmCYyCILABACIAiTSSAACAAAgBQAIiIEAAsgKJDKBMxCDMAAkkACYqUeI7uiOgAAAAAABAAAAAAAAAAIAAAAAAAAAAA==

>  <PUBCHEM_IUPAC_OPENEYE_NAME>  (7) 
O3-ethyl O5-methyl 2-(2-aminoethoxymethyl)-4-(2-chlorophenyl)-6-methyl-1,4-dihydropyridine-3,5-dicarboxylate

>  <PUBCHEM_IUPAC_CAS_NAME>  (7) 
2-(2-aminoethoxymethyl)-4-(2-chlorophenyl)-6-methyl-1,4-dihydropyridine-3,5-dicarboxylic acid O3-ethyl ester O5-methyl ester

>  <PUBCHEM_IUPAC_NAME_MARKUP>  (7) 
3-<I>O</I>-ethyl 5-<I>O</I>-methyl 2-(2-aminoethoxymethyl)-4-(2-chlorophenyl)-6-methyl-1,4-dihydropyridine-3,5-dicarboxylate

>  <PUBCHEM_IUPAC_NAME>  (7) 
3-O-ethyl 5-O-methyl 2-(2-aminoethoxymethyl)-4-(2-chlorophenyl)-6-methyl-1,4-dihydropyridine-3,5-dicarboxylate

>  <PUBCHEM_IUPAC_SYSTEMATIC_NAME>  (7) 
O3-ethyl O5-methyl 2-(2-azanylethoxymethyl)-4-(2-chlorophenyl)-6-methyl-1,4-dihydropyridine-3,5-dicarboxylate

>  <PUBCHEM_IUPAC_TRADITIONAL_NAME>  (7) 
2-(2-aminoethoxymethyl)-4-(2-chlorophenyl)-6-methyl-1,4-dihydropyridine-3,5-dicarboxylic acid O3-ethyl ester O5-methyl ester

>  <PUBCHEM_IUPAC_INCHI>  (7) 
InChI=1S/C20H25ClN2O5/c1-4-28-20(25)18-15(11-27-10-9-22)23-12(2)16(19(24)26-3)17(18)13-7-5-6-8-14(13)21/h5-8,17,23H,4,9-11,22H2,1-3H3

>  <PUBCHEM_IUPAC_INCHIKEY>  (7) 
HTIQEAQVCYTUBX-UHFFFAOYSA-N

>  <PUBCHEM_XLOGP3>  (7) 
3

>  <PUBCHEM_EXACT_MASS>  (7) 
408.1451996

>  <PUBCHEM_MOLECULAR_FORMULA>  (7) 
C20H25ClN2O5

>  <PUBCHEM_MOLECULAR_WEIGHT>  (7) 
408.9

>  <PUBCHEM_SMILES>  (7) 
CCOC(=O)C1=C(NC(=C(C1C2=CC=CC=C2Cl)C(=O)OC)C)COCCN

>  <PUBCHEM_CONNECTIVITY_SMILES>  (7) 
CCOC(=O)C1=C(NC(=C(C1C2=CC=CC=C2Cl)C(=O)OC)C)COCCN

>  <PUBCHEM_CACTVS_TPSA>  (7) 
99.9

>  <PUBCHEM_MONOISOTOPIC_WEIGHT>  (7) 
408.1451996

>  <PUBCHEM_TOTAL_CHARGE>  (7) 
0

>  <PUBCHEM_HEAVY_ATOM_COUNT>  (7) 
28

>  <PUBCHEM_ATOM_DEF_STEREO_COUNT>  (7) 
0

>  <PUBCHEM_ATOM_UDEF_STEREO_COUNT>  (7) 
1

>  <PUBCHEM_BOND_DEF_STEREO_COUNT>  (7) 
0

>  <PUBCHEM_BOND_UDEF_STEREO_COUNT>  (7) 
0

>  <PUBCHEM_ISOTOPIC_ATOM_COUNT>  (7) 
0

>  <PUBCHEM_COMPONENT_COUNT>  (7) 
1

>  <PUBCHEM_CACTVS_TAUTO_COUNT>  (7) 
-1

>  <PUBCHEM_COORDINATE_TYPE>  (7) 
1
5
255

>  <PUBCHEM_BONDANNOTATIONS>  (7) 
14  19  8
14  20  8
19  21  8
20  22  8
21  23  8
22  23  8
9  14  3

$$$$
2244
     RDKit          2D

 13 13  0  0  0  0  0  0  0  0999 V2000
    3.7321   -0.0600    0.0000 O   0  0  0  0  0  0  0  0  0  0  0  0
    6.3301    1.4400    0.0000 O   0  0  0  0  0  0  0  0  0  0  0  0
    4.5981    1.4400    0.0000 O   0  0  0  0  0  0  0  0  0  0  0  0
    2.8660   -1.5600    0.0000 O   0  0  0  0  0  0  0  0  0  0  0  0
    4.5981   -0.5600    0.0000 C   0  0  0  0  0  0  0  0  0  0  0  0
    5.4641   -0.0600    0.0000 C   0  0  0  0  0  0  0  0  0  0  0  0
    4.5981   -1.5600    0.0000 C   0  0  0  0  0  0  0  0  0  0  0  0
    6.3301   -0.5600    0.0000 C   0  0  0  0  0  0  0  0  0  0  0  0
    5.4641   -2.0600    0.0000 C   0  0  0  0  0  0  0  0  0  0  0  0
    6.3301   -1.5600    0.0000 C   0  0  0  0  0  0  0  0  0  0  0  0
    5.4641    0.9400    0.0000 C   0  0  0  0  0  0  0  0  0  0  0  0
    2.8660   -0.5600    0.0000 C   0  0  0  0  0  0  0  0  0  0  0  0
    2.0000   -0.0600    0.0000 C   0  0  0  0  0  0  0  0  0  0  0  0
  1  5  1  0
  1 12  1  0
  2 11  1  0
  3 11  2  0
  4 12  2  0
  5  6  2  0
  5  7  1  0
  6  8  1  0
  6 11  1  0
  7  9  2  0
  8 10  2  0
  9 10  1  0
 12 13  1  0
M  END
>  <PUBCHEM_COMPOUND_CID>  (8) 
2244

>  <PUBCHEM_COMPOUND_CANONICALIZED>  (8) 
1

>  <PUBCHEM_CACTVS_COMPLEXITY>  (8) 
212

>  <PUBCHEM_CACTVS_HBOND_ACCEPTOR>  (8) 
4

>  <PUBCHEM_CACTVS_HBOND_DONOR>  (8) 
1

>  <PUBCHEM_CACTVS_ROTATABLE_BOND>  (8) 
3

>  <PUBCHEM_CACTVS_SUBSKEYS>  (8) 
AAADccBwOAAAAAAAAAAAAAAAAAAAAAAAAAAwAAAAAAAAAAABAAAAGgAACAAADASAmAAyDoAABgCIAiDSCAACCAAkIAAIiAEGCMgMJzaENRqCe2Cl4BEIuYeIyCCOAAAAAAAIAAAAAAAAABAAAAAAAAAAAA==

>  <PUBCHEM_IUPAC_OPENEYE_NAME>  (8) 
2-acetoxybenzoic acid

>  <PUBCHEM_IUPAC_CAS_NAME>  (8) 
2-acetyloxybenzoic acid

>  <PUBCHEM_IUPAC_NAME_MARKUP>  (8) 
2-acetyloxybenzoic acid

>  <PUBCHEM_IUPAC_NAME>  (8) 
2-acetyloxybenzoic acid

>  <PUBCHEM_IUPAC_SYSTEMATIC_NAME>  (8) 
2-acetyloxybenzoic acid

>  <PUBCHEM_IUPAC_TRADITIONAL_NAME>  (8) 
2-acetoxybenzoic acid

>  <PUBCHEM_IUPAC_INCHI>  (8) 
InChI=1S/C9H8O4/c1-6(10)13-8-5-3-2-4-7(8)9(11)12/h2-5H,1H3,(H,11,12)

>  <PUBCHEM_IUPAC_INCHIKEY>  (8) 
BSYNRYMUTXBXSQ-UHFFFAOYSA-N

>  <PUBCHEM_XLOGP3>  (8) 
1.2

>  <PUBCHEM_EXACT_MASS>  (8) 
180.04225873

>  <PUBCHEM_MOLECULAR_FORMULA>  (8) 
C9H8O4

>  <PUBCHEM_MOLECULAR_WEIGHT>  (8) 
180.16

>  <PUBCHEM_SMILES>  (8) 
CC(=O)OC1=CC=CC=C1C(=O)O

>  <PUBCHEM_CONNECTIVITY_SMILES>  (8) 
CC(=O)OC1=CC=CC=C1C(=O)O

>  <PUBCHEM_CACTVS_TPSA>  (8) 
63.6

>  <PUBCHEM_MONOISOTOPIC_WEIGHT>  (8) 
180.04225873

>  <PUBCHEM_TOTAL_CHARGE>  (8) 
0

>  <PUBCHEM_HEAVY_ATOM_COUNT>  (8) 
13

>  <PUBCHEM_ATOM_DEF_STEREO_COUNT>  (8) 
0

>  <PUBCHEM_ATOM_UDEF_STEREO_COUNT>  (8) 
0

>  <PUBCHEM_BOND_DEF_STEREO_COUNT>  (8) 
0

>  <PUBCHEM_BOND_UDEF_STEREO_COUNT>  (8) 
0

>  <PUBCHEM_ISOTOPIC_ATOM_COUNT>  (8) 
0

>  <PUBCHEM_COMPONENT_COUNT>  (8) 
1

>  <PUBCHEM_CACTVS_TAUTO_COUNT>  (8) 
-1

>  <PUBCHEM_COORDINATE_TYPE>  (8) 
1
5
255

>  <PUBCHEM_BONDANNOTATIONS>  (8) 
5  6  8
5  7  8
6  8  8
7  9  8
8  10  8
9  10  8

$$$$
2519
     RDKit          2D

 14 15  0  0  0  0  0  0  0  0999 V2000
    3.7321    2.0000    0.0000 O   0  0  0  0  0  0  0  0  0  0  0  0
    2.0000   -1.0000    0.0000 O   0  0  0  0  0  0  0  0  0  0  0  0
    3.7321   -1.0000    0.0000 N   0  0  0  0  0  0  0  0  0  0  0  0
    5.5443    0.8047    0.0000 N   0  0  0  0  0  0  0  0  0  0  0  0
    2.8660    0.5000    0.0000 N   0  0  0  0  0  0  0  0  0  0  0  0
    5.5443   -0.8047    0.0000 N   0  0  0  0  0  0  0  0  0  0  0  0
    4.5981    0.5000    0.0000 C   0  0  0  0  0  0  0  0  0  0  0  0
    4.5981   -0.5000    0.0000 C   0  0  0  0  0  0  0  0  0  0  0  0
    3.7321    1.0000    0.0000 C   0  0  0  0  0  0  0  0  0  0  0  0
    2.8660   -0.5000    0.0000 C   0  0  0  0  0  0  0  0  0  0  0  0
    6.1279    0.0000    0.0000 C   0  0  0  0  0  0  0  0  0  0  0  0
    3.7321   -2.0000    0.0000 C   0  0  0  0  0  0  0  0  0  0  0  0
    5.8550    1.7553    0.0000 C   0  0  0  0  0  0  0  0  0  0  0  0
    2.0000    1.0000    0.0000 C   0  0  0  0  0  0  0  0  0  0  0  0
  1  9  2  0
  2 10  2  0
  3  8  1  0
  3 10  1  0
  3 12  1  0
  4  7  1  0
  4 11  1  0
  4 13  1  0
  5  9  1  0
  5 10  1  0
  5 14  1  0
  6  8  1  0
  6 11  2  0
  7  8  2  0
  7  9  1  0
M  END
>  <PUBCHEM_COMPOUND_CID>  (9) 
2519

>  <PUBCHEM_COMPOUND_CANONICALIZED>  (9) 
1

>  <PUBCHEM_CACTVS_COMPLEXITY>  (9) 
293

>  <PUBCHEM_CACTVS_HBOND_ACCEPTOR>  (9) 
3

>  <PUBCHEM_CACTVS_HBOND_DONOR>  (9) 
0

>  <PUBCHEM_CACTVS_ROTATABLE_BOND>  (9) 
0

>  <PUBCHEM_CACTVS_SUBSKEYS>  (9) 
AAADccBzsAAAAAAAAAAAAAAAAAAAAWAAAAAsAAAAAAAAAFgBgAAAHgAAAAAACAgBlgQHsBcMEACoAQdxdACAgC0XEKABUAGoVECASAhASCAUAIgIByJAAGAAAAAAAAAAAAAAAAAAAAAAAAAAAAAAAAAAAA==

>  <PUBCHEM_IUPAC_OPENEYE_NAME>  (9) 
1,3,7-trimethylpurine-2,6-dione

>  <PUBCHEM_IUPAC_CAS_NAME>  (9) 
1,3,7-trimethylpurine-2,6-dione

>  <PUBCHEM_IUPAC_NAME_MARKUP>  (9) 
1,3,7-trimethylpurine-2,6-dione

>  <PUBCHEM_IUPAC_NAME>  (9) 
1,3,7-trimethylpurine-2,6-dione

>  <PUBCHEM_IUPAC_SYSTEMATIC_NAME>  (9) 
1,3,7-trimethylpurine-2,6-dione

>  <PUBCHEM_IUPAC_TRADITIONAL_NAME>  (9) 
caffeine

>  <PUBCHEM_IUPAC_INCHI>  (9) 
InChI=1S/C8H10N4O2/c1-10-4-9-6-5(10)7(13)12(3)8(14)11(6)2/h4H,1-3H3

>  <PUBCHEM_IUPAC_INCHIKEY>  (9) 
RYYVLZVUVIJVGH-UHFFFAOYSA-N

>  <PUBCHEM_XLOGP3>  (9) 
-0.1

>  <PUBCHEM_EXACT_MASS>  (9) 
194.08037557

>  <PUBCHEM_MOLECULAR_FORMULA>  (9) 
C8H10N4O2

>  <PUBCHEM_MOLECULAR_WEIGHT>  (9) 
194.19

>  <PUBCHEM_SMILES>  (9) 
CN1C=NC2=C1C(=O)N(C(=O)N2C)C

>  <PUBCHEM_CONNECTIVITY_SMILES>  (9) 
CN1C=NC2=C1C(=O)N(C(=O)N2C)C

>  <PUBCHEM_CACTVS_TPSA>  (9) 
58.4

>  <PUBCHEM_MONOISOTOPIC_WEIGHT>  (9) 
194.08037557

>  <PUBCHEM_TOTAL_CHARGE>  (9) 
0

>  <PUBCHEM_HEAVY_ATOM_COUNT>  (9) 
14

>  <PUBCHEM_ATOM_DEF_STEREO_COUNT>  (9) 
0

>  <PUBCHEM_ATOM_UDEF_STEREO_COUNT>  (9) 
0

>  <PUBCHEM_BOND_DEF_STEREO_COUNT>  (9) 
0

>  <PUBCHEM_BOND_UDEF_STEREO_COUNT>  (9) 
0

>  <PUBCHEM_ISOTOPIC_ATOM_COUNT>  (9) 
0

>  <PUBCHEM_COMPONENT_COUNT>  (9) 
1

>  <PUBCHEM_CACTVS_TAUTO_COUNT>  (9) 
-1

>  <PUBCHEM_COORDINATE_TYPE>  (9) 
1
5
255

>  <PUBCHEM_BONDANNOTATIONS>  (9) 
3  10  8
3  8  8
4  11  8
4  7  8
5  10  8
5  9  8
6  11  8
6  8  8
7  8  8
7  9  8

$$$$
2678
     RDKit          2D

 27 29  0  0  1  0  0  0  0  0999 V2000
    2.0000   -5.0600    0.0000 Cl  0  0  0  0  0  0  0  0  0  0  0  0
    6.3301    2.4400    0.0000 O   0  0  0  0  0  0  0  0  0  0  0  0
    8.0622    4.4400    0.0000 O   0  0  0  0  0  0  0  0  0  0  0  0
    6.3301    4.4400    0.0000 O   0  0  0  0  0  0  0  0  0  0  0  0
    5.4641   -2.0600    0.0000 N   0  0  0  0  0  0  0  0  0  0  0  0
    5.4641   -0.0600    0.0000 N   0  0  0  0  0  0  0  0  0  0  0  0
    4.5981   -1.5600    0.0000 C   0  0  0  0  0  0  0  0  0  0  0  0
    6.3301   -1.5600    0.0000 C   0  0  0  0  0  0  0  0  0  0  0  0
    4.5981   -0.5600    0.0000 C   0  0  0  0  0  0  0  0  0  0  0  0
    6.3301   -0.5600    0.0000 C   0  0  0  0  0  0  0  0  0  0  0  0
    5.4641   -3.0600    0.0000 C   0  0  0  0  0  0  0  0  0  0  0  0
    5.4641    0.9400    0.0000 C   0  0  0  0  0  0  0  0  0  0  0  0
    4.5981   -3.5600    0.0000 C   0  0  0  0  0  0  0  0  0  0  0  0
    6.3301   -3.5600    0.0000 C   0  0  0  0  0  0  0  0  0  0  0  0
    6.3301    1.4400    0.0000 C   0  0  0  0  0  0  0  0  0  0  0  0
    3.7321   -3.0600    0.0000 C   0  0  0  0  0  0  0  0  0  0  0  0
    4.5981   -4.5600    0.0000 C   0  0  0  0  0  0  0  0  0  0  0  0
    6.3301   -4.5600    0.0000 C   0  0  0  0  0  0  0  0  0  0  0  0
    7.1962   -3.0600    0.0000 C   0  0  0  0  0  0  0  0  0  0  0  0
    2.8660   -3.5600    0.0000 C   0  0  0  0  0  0  0  0  0  0  0  0
    3.7321   -5.0600    0.0000 C   0  0  0  0  0  0  0  0  0  0  0  0
    7.1962   -5.0600    0.0000 C   0  0  0  0  0  0  0  0  0  0  0  0
    8.0622   -3.5600    0.0000 C   0  0  0  0  0  0  0  0  0  0  0  0
    2.8660   -4.5600    0.0000 C   0  0  0  0  0  0  0  0  0  0  0  0
    8.0622   -4.5600    0.0000 C   0  0  0  0  0  0  0  0  0  0  0  0
    7.1962    2.9400    0.0000 C   0  0  0  0  0  0  0  0  0  0  0  0
    7.1962    3.9400    0.0000 C   0  0  0  0  0  0  0  0  0  0  0  0
  1 24  1  0
  2 15  1  0
  2 26  1  0
  3 27  1  0
  4 27  2  0
  5  7  1  0
  5  8  1  0
  5 11  1  0
  6  9  1  0
  6 10  1  0
  6 12  1  0
  7  9  1  0
  8 10  1  0
 11 13  1  0
 11 14  1  0
 12 15  1  0
 13 16  2  0
 13 17  1  0
 14 18  2  0
 14 19  1  0
 16 20  1  0
 17 21  2  0
 18 22  1  0
 19 23  2  0
 20 24  2  0
 21 24  1  0
 22 25  2  0
 23 25  1  0
 26 27  1  0
M  END
>  <PUBCHEM_COMPOUND_CID>  (10) 
2678

>  <PUBCHEM_COMPOUND_CANONICALIZED>  (10) 
1

>  <PUBCHEM_CACTVS_COMPLEXITY>  (10) 
443

>  <PUBCHEM_CACTVS_HBOND_ACCEPTOR>  (10) 
5

>  <PUBCHEM_CACTVS_HBOND_DONOR>  (10) 
1

>  <PUBCHEM_CACTVS_ROTATABLE_BOND>  (10) 
8

>  <PUBCHEM_CACTVS_SUBSKEYS>  (10) 
AAADceB7MAAEAAAAAAAAAAAAAAAAAAAAAAA8YIAAAAAAAAABQAAAHgIACAAADCrhmCYwCIMABgCIAiDSCAKCAAAgBQAIiABIBogLYCKBkxWXIAhggACbiAcQgMAOBAAAAAAAAAAIAAAAAAAAAAAAAAAAAA==

>  <PUBCHEM_IUPAC_OPENEYE_NAME>  (10) 
2-[2-[4-[(4-chlorophenyl)-phenyl-methyl]piperazin-1-yl]ethoxy]acetic acid

>  <PUBCHEM_IUPAC_CAS_NAME>  (10) 
2-[2-[4-[(4-chlorophenyl)-phenylmethyl]-1-piperazinyl]ethoxy]acetic acid

>  <PUBCHEM_IUPAC_NAME_MARKUP>  (10) 
2-[2-[4-[(4-chlorophenyl)-phenylmethyl]piperazin-1-yl]ethoxy]acetic acid

>  <PUBCHEM_IUPAC_NAME>  (10) 
2-[2-[4-[(4-chlorophenyl)-phenylmethyl]piperazin-1-yl]ethoxy]acetic acid

>  <PUBCHEM_IUPAC_SYSTEMATIC_NAME>  (10) 
2-[2-[4-[(4-chlorophenyl)-phenyl-methyl]piperazin-1-yl]ethoxy]ethanoic acid

>  <PUBCHEM_IUPAC_TRADITIONAL_NAME>  (10) 
2-[2-[4-[(4-chlorophenyl)-phenyl-methyl]piperazino]ethoxy]acetic acid

>  <PUBCHEM_IUPAC_INCHI>  (10) 
InChI=1S/C21H25ClN2O3/c22-19-8-6-18(7-9-19)21(17-4-2-1-3-5-17)24-12-10-23(11-13-24)14-15-27-16-20(25)26/h1-9,21H,10-16H2,(H,25,26)

>  <PUBCHEM_IUPAC_INCHIKEY>  (10) 
ZKLPARSLTMPFCP-UHFFFAOYSA-N

>  <PUBCHEM_XLOGP3>  (10) 
1.7

>  <PUBCHEM_EXACT_MASS>  (10) 
388.1553704

>  <PUBCHEM_MOLECULAR_FORMULA>  (10) 
C21H25ClN2O3

>  <PUBCHEM_MOLECULAR_WEIGHT>  (10) 
388.9

>  <PUBCHEM_SMILES>  (10) 
C1CN(CCN1CCOCC(=O)O)C(C2=CC=CC=C2)C3=CC=C(C=C3)Cl

>  <PUBCHEM_CONNECTIVITY_SMILES>  (10) 
C1CN(CCN1CCOCC(=O)O)C(C2=CC=CC=C2)C3=CC=C(C=C3)Cl

>  <PUBCHEM_CACTVS_TPSA>  (10) 
53

>  <PUBCHEM_MONOISOTOPIC_WEIGHT>  (10) 
388.1553704

>  <PUBCHEM_TOTAL_CHARGE>  (10) 
0

>  <PUBCHEM_HEAVY_ATOM_COUNT>  (10) 
27

>  <PUBCHEM_ATOM_DEF_STEREO_COUNT>  (10) 
0

>  <PUBCHEM_ATOM_UDEF_STEREO_COUNT>  (10) 
1

>  <PUBCHEM_BOND_DEF_STEREO_COUNT>  (10) 
0

>  <PUBCHEM_BOND_UDEF_STEREO_COUNT>  (10) 
0

>  <PUBCHEM_ISOTOPIC_ATOM_COUNT>  (10) 
0

>  <PUBCHEM_COMPONENT_COUNT>  (10) 
1

>  <PUBCHEM_CACTVS_TAUTO_COUNT>  (10) 
-1

>  <PUBCHEM_COORDINATE_TYPE>  (10) 
1
5
255

>  <PUBCHEM_BONDANNOTATIONS>  (10) 
11  36  3
13  16  8
13  17  8
14  18  8
14  19  8
16  20  8
17  21  8
18  22  8
19  23  8
20  24  8
21  24  8
22  25  8
23  25  8

$$$$
2724385
     RDKit          2D

 55 62  0  0  1  0  0  0  0  0999 V2000
   18.3182    1.5438    0.0000 O   0  0  0  0  0  0  0  0  0  0  0  0
   17.4387   -1.9529    0.0000 O   0  0  0  0  0  0  0  0  0  0  0  0
   12.9292    2.6169    0.0000 O   0  0  0  0  0  0  0  0  0  0  0  0
   19.5591   -3.3344    0.0000 O   0  0  0  0  0  0  0  0  0  0  0  0
   11.1972    2.6169    0.0000 O   0  0  0  0  0  0  0  0  0  0  0  0
   21.3186   -3.6169    0.0000 O   0  0  0  0  0  0  0  0  0  0  0  0
   11.1972   -0.3831    0.0000 O   0  0  0  0  0  0  0  0  0  0  0  0
    9.4651    0.6169    0.0000 O   0  0  0  0  0  0  0  0  0  0  0  0
    8.5991    2.1169    0.0000 O   0  0  0  0  0  0  0  0  0  0  0  0
    6.0010    2.6169    0.0000 O   0  0  0  0  0  0  0  0  0  0  0  0
    6.0010    0.6169    0.0000 O   0  0  0  0  0  0  0  0  0  0  0  0
    5.1350    1.1169    0.0000 O   0  0  0  0  0  0  0  0  0  0  0  0
    2.5369    2.6169    0.0000 O   0  0  0  0  0  0  0  0  0  0  0  0
    2.5369    0.6169    0.0000 O   0  0  0  0  0  0  0  0  0  0  0  0
   18.3144    0.5438    0.0000 C   0  0  0  0  0  0  0  0  0  0  0  0
   17.4503    1.0471    0.0000 C   0  0  0  0  0  0  0  0  0  0  0  0
   16.5823    0.5504    0.0000 C   0  0  0  0  0  0  0  0  0  0  0  0
   18.3105   -0.4562    0.0000 C   0  0  0  0  0  0  0  0  0  0  0  0
   15.6743    1.0608    0.0000 C   0  0  0  0  0  0  0  0  0  0  0  0
   15.6703    2.1024    0.0000 C   0  0  0  0  0  0  0  0  0  0  0  0
   17.4426   -0.9529    0.0000 C   0  0  0  0  0  0  0  0  0  0  0  0
   16.5785   -0.4496    0.0000 C   0  0  0  0  0  0  0  0  0  0  0  0
   19.2556   -0.7646    0.0000 C   0  0  0  0  0  0  0  0  0  0  0  0
   19.2618    0.8448    0.0000 C   0  0  0  0  0  0  0  0  0  0  0  0
   17.4704    2.0885    0.0000 C   0  0  0  0  0  0  0  0  0  0  0  0
   16.5744    2.6197    0.0000 C   0  0  0  0  0  0  0  0  0  0  0  0
   19.8423    0.0379    0.0000 C   0  0  0  0  0  0  0  0  0  0  0  0
   14.7453    0.5003    0.0000 C   0  0  0  0  0  0  0  0  0  0  0  0
   18.3067   -1.4562    0.0000 C   0  0  0  0  0  0  0  0  0  0  0  0
   14.7370    2.6557    0.0000 C   0  0  0  0  0  0  0  0  0  0  0  0
   15.6782    0.0608    0.0000 C   0  0  0  0  0  0  0  0  0  0  0  0
   13.7994    1.0319    0.0000 C   0  0  0  0  0  0  0  0  0  0  0  0
   13.7953    2.1169    0.0000 C   0  0  0  0  0  0  0  0  0  0  0  0
   19.5626   -1.7163    0.0000 C   0  0  0  0  0  0  0  0  0  0  0  0
   18.9731   -2.5241    0.0000 C   0  0  0  0  0  0  0  0  0  0  0  0
   20.5130   -2.0274    0.0000 C   0  0  0  0  0  0  0  0  0  0  0  0
   20.5108   -3.0274    0.0000 C   0  0  0  0  0  0  0  0  0  0  0  0
   12.0632    2.1169    0.0000 C   0  0  0  0  0  0  0  0  0  0  0  0
   12.0632    1.1169    0.0000 C   0  0  0  0  0  0  0  0  0  0  0  0
   11.1972    0.6169    0.0000 C   0  0  0  0  0  0  0  0  0  0  0  0
   10.3312    2.1169    0.0000 C   0  0  0  0  0  0  0  0  0  0  0  0
   10.3312    1.1169    0.0000 C   0  0  0  0  0  0  0  0  0  0  0  0
    9.4651    2.6169    0.0000 C   0  0  0  0  0  0  0  0  0  0  0  0
    8.5991    1.1169    0.0000 C   0  0  0  0  0  0  0  0  0  0  0  0
    7.7331    0.6169    0.0000 C   0  0  0  0  0  0  0  0  0  0  0  0
    6.8671    1.1169    0.0000 C   0  0  0  0  0  0  0  0  0  0  0  0
    7.7331    2.6169    0.0000 C   0  0  0  0  0  0  0  0  0  0  0  0
    6.8671    2.1169    0.0000 C   0  0  0  0  0  0  0  0  0  0  0  0
    7.7331    3.6169    0.0000 C   0  0  0  0  0  0  0  0  0  0  0  0
    5.1350    2.1169    0.0000 C   0  0  0  0  0  0  0  0  0  0  0  0
    4.2690    2.6169    0.0000 C   0  0  0  0  0  0  0  0  0  0  0  0
    3.4030    2.1169    0.0000 C   0  0  0  0  0  0  0  0  0  0  0  0
    4.2690    0.6169    0.0000 C   0  0  0  0  0  0  0  0  0  0  0  0
    3.4030    1.1169    0.0000 C   0  0  0  0  0  0  0  0  0  0  0  0
    4.2690   -0.3831    0.0000 C   0  0  0  0  0  0  0  0  0  0  0  0
 15  1  1  6
 21  2  1  6
 33  3  1  6
 38  3  1  1
  4 35  1  0
  4 37  1  0
  5 38  1  0
  5 41  1  0
  6 37  2  0
 40  7  1  6
 42  8  1  6
 44  8  1  1
  9 44  1  0
  9 47  1  0
 48 10  1  6
 50 10  1  6
 46 11  1  6
 12 50  1  0
 12 53  1  0
 52 13  1  1
 54 14  1  1
 15 16  1  0
 15 18  1  0
 15 24  1  0
 16 17  1  0
 16 25  1  1
 17 19  1  0
 17 22  1  6
 18 21  1  0
 18 23  1  0
 18 29  1  6
 19 20  1  0
 19 28  1  0
 19 31  1  6
 20 26  1  1
 20 30  1  0
 21 22  1  0
 23 27  1  0
 23 34  1  6
 24 27  1  0
 25 26  1  0
 28 32  1  0
 30 33  1  0
 32 33  1  0
 34 35  1  0
 34 36  2  0
 36 37  1  0
 38 39  1  0
 39 40  1  0
 40 42  1  0
 41 42  1  0
 41 43  1  1
 44 45  1  0
 45 46  1  0
 46 48  1  0
 47 48  1  0
 47 49  1  1
 50 51  1  0
 51 52  1  0
 52 54  1  0
 53 54  1  0
 53 55  1  6
M  END
>  <PUBCHEM_COMPOUND_CID>  (11) 
2724385

>  <PUBCHEM_COMPOUND_CANONICALIZED>  (11) 
1

>  <PUBCHEM_CACTVS_COMPLEXITY>  (11) 
1450

>  <PUBCHEM_CACTVS_HBOND_ACCEPTOR>  (11) 
14

>  <PUBCHEM_CACTVS_HBOND_DONOR>  (11) 
6

>  <PUBCHEM_CACTVS_ROTATABLE_BOND>  (11) 
7

>  <PUBCHEM_CACTVS_SUBSKEYS>  (11) 
AAADcfB8PAAAAAAAAAAAAAAAAAAAAYIAAAA0aNECAAAAAGDAAAAAGgAACAAAD1SwgAMCCAAABgCIAiDSCAAAAAAgAAAACAAAAEgRFAIAIQAiUAAFgAAPIQPA4PwPgAAAAAAAAADAAAYQADAAAYAADAAAAA==

>  <PUBCHEM_IUPAC_OPENEYE_NAME>  (11) 
3-[(3S,5R,8R,9S,10S,12R,13S,14S,17R)-3-[(2R,4S,5S,6R)-5-[(2S,4S,5S,6R)-5-[(2S,4S,5S,6R)-4,5-dihydroxy-6-methyl-tetrahydropyran-2-yl]oxy-4-hydroxy-6-methyl-tetrahydropyran-2-yl]oxy-4-hydroxy-6-methyl-tetrahydropyran-2-yl]oxy-12,14-dihydroxy-10,13-dimethyl-1,2,3,4,5,6,7,8,9,11,12,15,16,17-tetradecahydrocyclopenta[a]phenanthren-17-yl]-2H-furan-5-one

>  <PUBCHEM_IUPAC_CAS_NAME>  (11) 
3-[(3S,5R,8R,9S,10S,12R,13S,14S,17R)-3-[[(2R,4S,5S,6R)-5-[[(2S,4S,5S,6R)-5-[[(2S,4S,5S,6R)-4,5-dihydroxy-6-methyl-2-oxanyl]oxy]-4-hydroxy-6-methyl-2-oxanyl]oxy]-4-hydroxy-6-methyl-2-oxanyl]oxy]-12,14-dihydroxy-10,13-dimethyl-1,2,3,4,5,6,7,8,9,11,12,15,16,17-tetradecahydrocyclopenta[a]phenanthren-17-yl]-2H-furan-5-one

>  <PUBCHEM_IUPAC_NAME_MARKUP>  (11) 
3-[(3<I>S</I>,5<I>R</I>,8<I>R</I>,9<I>S</I>,10<I>S</I>,12<I>R</I>,13<I>S</I>,14<I>S</I>,17<I>R</I>)-3-[(2<I>R</I>,4<I>S</I>,5<I>S</I>,6<I>R</I>)-5-[(2<I>S</I>,4<I>S</I>,5<I>S</I>,6<I>R</I>)-5-[(2<I>S</I>,4<I>S</I>,5<I>S</I>,6<I>R</I>)-4,5-dihydroxy-6-methyloxan-2-yl]oxy-4-hydroxy-6-methyloxan-2-yl]oxy-4-hydroxy-6-methyloxan-2-yl]oxy-12,14-dihydroxy-10,13-dimethyl-1,2,3,4,5,6,7,8,9,11,12,15,16,17-tetradecahydrocyclopenta[a]phenanthren-17-yl]-2<I>H</I>-furan-5-one

>  <PUBCHEM_IUPAC_NAME>  (11) 
3-[(3S,5R,8R,9S,10S,12R,13S,14S,17R)-3-[(2R,4S,5S,6R)-5-[(2S,4S,5S,6R)-5-[(2S,4S,5S,6R)-4,5-dihydroxy-6-methyloxan-2-yl]oxy-4-hydroxy-6-methyloxan-2-yl]oxy-4-hydroxy-6-methyloxan-2-yl]oxy-12,14-dihydroxy-10,13-dimethyl-1,2,3,4,5,6,7,8,9,11,12,15,16,17-tetradecahydrocyclopenta[a]phenanthren-17-yl]-2H-furan-5-one

>  <PUBCHEM_IUPAC_SYSTEMATIC_NAME>  (11) 
3-[(3S,5R,8R,9S,10S,12R,13S,14S,17R)-10,13-dimethyl-3-[(2R,4S,5S,6R)-6-methyl-5-[(2S,4S,5S,6R)-6-methyl-5-[(2S,4S,5S,6R)-6-methyl-4,5-bis(oxidanyl)oxan-2-yl]oxy-4-oxidanyl-oxan-2-yl]oxy-4-oxidanyl-oxan-2-yl]oxy-12,14-bis(oxidanyl)-1,2,3,4,5,6,7,8,9,11,12,15,16,17-tetradecahydrocyclopenta[a]phenanthren-17-yl]-2H-furan-5-one

>  <PUBCHEM_IUPAC_TRADITIONAL_NAME>  (11) 
3-[(3S,5R,8R,9S,10S,12R,13S,14S,17R)-3-[(2R,4S,5S,6R)-5-[(2S,4S,5S,6R)-5-[(2S,4S,5S,6R)-4,5-dihydroxy-6-methyl-tetrahydropyran-2-yl]oxy-4-hydroxy-6-methyl-tetrahydropyran-2-yl]oxy-4-hydroxy-6-methyl-tetrahydropyran-2-yl]oxy-12,14-dihydroxy-10,13-dimethyl-1,2,3,4,5,6,7,8,9,11,12,15,16,17-tetradecahydrocyclopenta[a]phenanthren-17-yl]-2H-furan-5-one

>  <PUBCHEM_IUPAC_INCHI>  (11) 
InChI=1S/C41H64O14/c1-19-36(47)28(42)15-34(50-19)54-38-21(3)52-35(17-30(38)44)55-37-20(2)51-33(16-29(37)43)53-24-8-10-39(4)23(13-24)6-7-26-27(39)14-31(45)40(5)25(9-11-41(26,40)48)22-12-32(46)49-18-22/h12,19-21,23-31,33-38,42-45,47-48H,6-11,13-18H2,1-5H3/t19-,20-,21-,23-,24+,25-,26-,27+,28+,29+,30+,31-,33+,34+,35+,36-,37-,38-,39+,40+,41+/m1/s1

>  <PUBCHEM_IUPAC_INCHIKEY>  (11) 
LTMHDMANZUZIPE-PUGKRICDSA-N

>  <PUBCHEM_XLOGP3>  (11) 
1.3

>  <PUBCHEM_EXACT_MASS>  (11) 
780.42960671

>  <PUBCHEM_MOLECULAR_FORMULA>  (11) 
C41H64O14

>  <PUBCHEM_MOLECULAR_WEIGHT>  (11) 
780.9

>  <PUBCHEM_SMILES>  (11) 
C[C@@H]1[C@H]([C@H](C[C@@H](O1)O[C@@H]2[C@H](O[C@H](C[C@@H]2O)O[C@@H]3[C@H](O[C@H](C[C@@H]3O)O[C@H]4CC[C@]5([C@@H](C4)CC[C@@H]6[C@@H]5C[C@H]([C@]7([C@@]6(CC[C@@H]7C8=CC(=O)OC8)O)C)O)C)C)C)O)O

>  <PUBCHEM_CONNECTIVITY_SMILES>  (11) 
CC1C(C(CC(O1)OC2C(OC(CC2O)OC3C(OC(CC3O)OC4CCC5(C(C4)CCC6C5CC(C7(C6(CCC7C8=CC(=O)OC8)O)C)O)C)C)C)O)O

>  <PUBCHEM_CACTVS_TPSA>  (11) 
203

>  <PUBCHEM_MONOISOTOPIC_WEIGHT>  (11) 
780.42960671

>  <PUBCHEM_TOTAL_CHARGE>  (11) 
0

>  <PUBCHEM_HEAVY_ATOM_COUNT>  (11) 
55

>  <PUBCHEM_ATOM_DEF_STEREO_COUNT>  (11) 
21

>  <PUBCHEM_ATOM_UDEF_STEREO_COUNT>  (11) 
0

>  <PUBCHEM_BOND_DEF_STEREO_COUNT>  (11) 
0

>  <PUBCHEM_BOND_UDEF_STEREO_COUNT>  (11) 
0

>  <PUBCHEM_ISOTOPIC_ATOM_COUNT>  (11) 
0

>  <PUBCHEM_COMPONENT_COUNT>  (11) 
1

>  <PUBCHEM_CACTVS_TAUTO_COUNT>  (11) 
-1

>  <PUBCHEM_COORDINATE_TYPE>  (11) 
1
5
255

>  <PUBCHEM_BONDANNOTATIONS>  (11) 
15  1  6
48  10  6
50  10  6
46  11  6
52  13  5
54  14  5
16  56  6
17  57  5
18  29  6
19  31  6
21  2  6
20  58  6
23  34  6
33  3  6
38  3  5
41  43  5
47  49  5
53  55  6
40  7  6
42  8  6
44  8  5

$$$$
2764
     RDKit          2D

 24 27  0  0  0  0  0  0  0  0999 V2000
    4.2639    1.4572    0.0000 F   0  0  0  0  0  0  0  0  0  0  0  0
    7.7941    2.4330    0.0000 O   0  0  0  0  0  0  0  0  0  0  0  0
   10.3921    0.9330    0.0000 O   0  0  0  0  0  0  0  0  0  0  0  0
    9.5261    2.4330    0.0000 O   0  0  0  0  0  0  0  0  0  0  0  0
    7.7941   -0.5670    0.0000 N   0  0  0  0  0  0  0  0  0  0  0  0
    4.2639   -0.5911    0.0000 N   0  0  0  0  0  0  0  0  0  0  0  0
    2.5357   -1.5978    0.0000 N   0  0  0  0  0  0  0  0  0  0  0  0
    7.7941   -1.5670    0.0000 C   0  0  0  0  0  0  0  0  0  0  0  0
    7.2941   -2.4330    0.0000 C   0  0  0  0  0  0  0  0  0  0  0  0
    8.2941   -2.4330    0.0000 C   0  0  0  0  0  0  0  0  0  0  0  0
    6.9280   -0.0670    0.0000 C   0  0  0  0  0  0  0  0  0  0  0  0
    8.6601   -0.0670    0.0000 C   0  0  0  0  0  0  0  0  0  0  0  0
    6.9280    0.9330    0.0000 C   0  0  0  0  0  0  0  0  0  0  0  0
    6.0341   -0.6016    0.0000 C   0  0  0  0  0  0  0  0  0  0  0  0
    5.1280   -0.0878    0.0000 C   0  0  0  0  0  0  0  0  0  0  0  0
    3.3960   -0.0945    0.0000 C   0  0  0  0  0  0  0  0  0  0  0  0
    4.2678   -1.5911    0.0000 C   0  0  0  0  0  0  0  0  0  0  0  0
    8.6601    0.9330    0.0000 C   0  0  0  0  0  0  0  0  0  0  0  0
    7.7941    1.4330    0.0000 C   0  0  0  0  0  0  0  0  0  0  0  0
    2.5319   -0.5978    0.0000 C   0  0  0  0  0  0  0  0  0  0  0  0
    3.4037   -2.0945    0.0000 C   0  0  0  0  0  0  0  0  0  0  0  0
    6.0341    1.4677    0.0000 C   0  0  0  0  0  0  0  0  0  0  0  0
    5.1280    0.9538    0.0000 C   0  0  0  0  0  0  0  0  0  0  0  0
    9.5261    1.4330    0.0000 C   0  0  0  0  0  0  0  0  0  0  0  0
  1 23  1  0
  2 19  2  0
  3 24  1  0
  4 24  2  0
  5  8  1  0
  5 11  1  0
  5 12  1  0
  6 15  1  0
  6 16  1  0
  6 17  1  0
  7 20  1  0
  7 21  1  0
  8  9  1  0
  8 10  1  0
  9 10  1  0
 11 13  2  0
 11 14  1  0
 12 18  2  0
 13 19  1  0
 13 22  1  0
 14 15  2  0
 15 23  1  0
 16 20  1  0
 17 21  1  0
 18 19  1  0
 18 24  1  0
 22 23  2  0
M  END
>  <PUBCHEM_COMPOUND_CID>  (12) 
2764

>  <PUBCHEM_COMPOUND_CANONICALIZED>  (12) 
1

>  <PUBCHEM_CACTVS_COMPLEXITY>  (12) 
571

>  <PUBCHEM_CACTVS_HBOND_ACCEPTOR>  (12) 
7

>  <PUBCHEM_CACTVS_HBOND_DONOR>  (12) 
2

>  <PUBCHEM_CACTVS_ROTATABLE_BOND>  (12) 
3

>  <PUBCHEM_CACTVS_SUBSKEYS>  (12) 
AAADceB7MQAAAAAAAAAAAAAAGAAAAAAAAAA8QIAAAAAAAACBAAAAHwAQCAAADCzBmAwwyIPAAgCIAqTWSACCAAAlAgAAiIEIZMgIZD7I1NGUYYhksADI2ceY2aOeCAAAAAQCAAAQAAAACAQAAAAAAAAAAA==

>  <PUBCHEM_IUPAC_OPENEYE_NAME>  (12) 
1-cyclopropyl-6-fluoro-4-oxo-7-piperazin-1-yl-quinoline-3-carboxylic acid

>  <PUBCHEM_IUPAC_CAS_NAME>  (12) 
1-cyclopropyl-6-fluoro-4-oxo-7-(1-piperazinyl)-3-quinolinecarboxylic acid

>  <PUBCHEM_IUPAC_NAME_MARKUP>  (12) 
1-cyclopropyl-6-fluoro-4-oxo-7-piperazin-1-ylquinoline-3-carboxylic acid

>  <PUBCHEM_IUPAC_NAME>  (12) 
1-cyclopropyl-6-fluoro-4-oxo-7-piperazin-1-ylquinoline-3-carboxylic acid

>  <PUBCHEM_IUPAC_SYSTEMATIC_NAME>  (12) 
1-cyclopropyl-6-fluoranyl-4-oxidanylidene-7-piperazin-1-yl-quinoline-3-carboxylic acid

>  <PUBCHEM_IUPAC_TRADITIONAL_NAME>  (12) 
1-cyclopropyl-6-fluoro-4-keto-7-piperazino-quinoline-3-carboxylic acid

>  <PUBCHEM_IUPAC_INCHI>  (12) 
InChI=1S/C17H18FN3O3/c18-13-7-11-14(8-15(13)20-5-3-19-4-6-20)21(10-1-2-10)9-12(16(11)22)17(23)24/h7-10,19H,1-6H2,(H,23,24)

>  <PUBCHEM_IUPAC_INCHIKEY>  (12) 
MYSWGUAQZAJSOK-UHFFFAOYSA-N

>  <PUBCHEM_XLOGP3>  (12) 
-1.1

>  <PUBCHEM_EXACT_MASS>  (12) 
331.13321961

>  <PUBCHEM_MOLECULAR_FORMULA>  (12) 
C17H18FN3O3

>  <PUBCHEM_MOLECULAR_WEIGHT>  (12) 
331.34

>  <PUBCHEM_SMILES>  (12) 
C1CC1N2C=C(C(=O)C3=CC(=C(C=C32)N4CCNCC4)F)C(=O)O

>  <PUBCHEM_CONNECTIVITY_SMILES>  (12) 
C1CC1N2C=C(C(=O)C3=CC(=C(C=C32)N4CCNCC4)F)C(=O)O

>  <PUBCHEM_CACTVS_TPSA>  (12) 
72.9

>  <PUBCHEM_MONOISOTOPIC_WEIGHT>  (12) 
331.13321961

>  <PUBCHEM_TOTAL_CHARGE>  (12) 
0

>  <PUBCHEM_HEAVY_ATOM_COUNT>  (12) 
24

>  <PUBCHEM_ATOM_DEF_STEREO_COUNT>  (12) 
0

>  <PUBCHEM_ATOM_UDEF_STEREO_COUNT>  (12) 
0

>  <PUBCHEM_BOND_DEF_STEREO_COUNT>  (12) 
0

>  <PUBCHEM_BOND_UDEF_STEREO_COUNT>  (12) 
0

>  <PUBCHEM_ISOTOPIC_ATOM_COUNT>  (12) 
0

>  <PUBCHEM_COMPONENT_COUNT>  (12) 
1

>  <PUBCHEM_CACTVS_TAUTO_COUNT>  (12) 
-1

>  <PUBCHEM_COORDINATE_TYPE>  (12) 
1
5
255

>  <PUBCHEM_BONDANNOTATIONS>  (12) 
11  13  8
11  14  8
12  18  8
13  19  8
13  22  8
14  15  8
15  23  8
18  19  8
22  23  8
5  11  8
5  12  8

$$$$
2802
     RDKit          2D

 22 24  0  0  0  0  0  0  0  0999 V2000
    5.5096    0.5528    0.0000 Cl  0  0  0  0  0  0  0  0  0  0  0  0
    2.0000   -2.8430    0.0000 O   0  0  0  0  0  0  0  0  0  0  0  0
    7.9123   -0.6327    0.0000 O   0  0  0  0  0  0  0  0  0  0  0  0
    7.0405    0.8640    0.0000 O   0  0  0  0  0  0  0  0  0  0  0  0
    3.5984   -2.2837    0.0000 N   0  0  0  0  0  0  0  0  0  0  0  0
    2.6235   -0.2592    0.0000 N   0  0  0  0  0  0  0  0  0  0  0  0
    7.0444   -0.1360    0.0000 N   0  0  0  0  0  0  0  0  0  0  0  0
    4.3803   -0.6602    0.0000 C   0  0  0  0  0  0  0  0  0  0  0  0
    4.3803   -1.6602    0.0000 C   0  0  0  0  0  0  0  0  0  0  0  0
    3.5984   -0.0367    0.0000 C   0  0  0  0  0  0  0  0  0  0  0  0
    3.8209    0.9383    0.0000 C   0  0  0  0  0  0  0  0  0  0  0  0
    5.2742   -0.1255    0.0000 C   0  0  0  0  0  0  0  0  0  0  0  0
    5.2742   -2.1948    0.0000 C   0  0  0  0  0  0  0  0  0  0  0  0
    2.1896   -1.1602    0.0000 C   0  0  0  0  0  0  0  0  0  0  0  0
    6.1803   -0.6393    0.0000 C   0  0  0  0  0  0  0  0  0  0  0  0
    2.6235   -2.0611    0.0000 C   0  0  0  0  0  0  0  0  0  0  0  0
    6.1803   -1.6810    0.0000 C   0  0  0  0  0  0  0  0  0  0  0  0
    4.7765    1.2330    0.0000 C   0  0  0  0  0  0  0  0  0  0  0  0
    3.0879    1.6184    0.0000 C   0  0  0  0  0  0  0  0  0  0  0  0
    4.9990    2.2079    0.0000 C   0  0  0  0  0  0  0  0  0  0  0  0
    3.3104    2.5934    0.0000 C   0  0  0  0  0  0  0  0  0  0  0  0
    4.2660    2.8881    0.0000 C   0  0  0  0  0  0  0  0  0  0  0  0
  1 18  1  0
  2 16  2  0
  3  7  1  0
  4  7  2  0
  5  9  1  0
  5 16  1  0
  6 10  2  0
  6 14  1  0
  7 15  1  0
  8  9  2  0
  8 10  1  0
  8 12  1  0
  9 13  1  0
 10 11  1  0
 11 18  2  0
 11 19  1  0
 12 15  2  0
 13 17  2  0
 14 16  1  0
 15 17  1  0
 18 20  1  0
 19 21  2  0
 20 22  2  0
 21 22  1  0
M  CHG  2   3  -1   7   1
M  END
>  <PUBCHEM_COMPOUND_CID>  (13) 
2802

>  <PUBCHEM_COMPOUND_CANONICALIZED>  (13) 
1

>  <PUBCHEM_CACTVS_COMPLEXITY>  (13) 
491

>  <PUBCHEM_CACTVS_HBOND_ACCEPTOR>  (13) 
4

>  <PUBCHEM_CACTVS_HBOND_DONOR>  (13) 
1

>  <PUBCHEM_CACTVS_ROTATABLE_BOND>  (13) 
1

>  <PUBCHEM_CACTVS_SUBSKEYS>  (13) 
AAADccBzMAAEAAAAAAAAAAAAAAAAAAAAAAAwYAAABAAAAAABQAAAHgIUAAAADArBmCQwwILQQACpAyVyVwCCAAAhBwAoiACgZpoIYKLBk5GUIAhglADIyAcQgMAOAACAQAADAAAAAQCAAAYAAAAAAAAAAA==

>  <PUBCHEM_IUPAC_OPENEYE_NAME>  (13) 
5-(2-chlorophenyl)-7-nitro-1,3-dihydro-1,4-benzodiazepin-2-one

>  <PUBCHEM_IUPAC_CAS_NAME>  (13) 
5-(2-chlorophenyl)-7-nitro-1,3-dihydro-1,4-benzodiazepin-2-one

>  <PUBCHEM_IUPAC_NAME_MARKUP>  (13) 
5-(2-chlorophenyl)-7-nitro-1,3-dihydro-1,4-benzodiazepin-2-one

>  <PUBCHEM_IUPAC_NAME>  (13) 
5-(2-chlorophenyl)-7-nitro-1,3-dihydro-1,4-benzodiazepin-2-one

>  <PUBCHEM_IUPAC_SYSTEMATIC_NAME>  (13) 
5-(2-chlorophenyl)-7-nitro-1,3-dihydro-1,4-benzodiazepin-2-one

>  <PUBCHEM_IUPAC_TRADITIONAL_NAME>  (13) 
5-(2-chlorophenyl)-7-nitro-1,3-dihydro-1,4-benzodiazepin-2-one

>  <PUBCHEM_IUPAC_INCHI>  (13) 
InChI=1S/C15H10ClN3O3/c16-12-4-2-1-3-10(12)15-11-7-9(19(21)22)5-6-13(11)18-14(20)8-17-15/h1-7H,8H2,(H,18,20)

>  <PUBCHEM_IUPAC_INCHIKEY>  (13) 
DGBIGWXXNGSACT-UHFFFAOYSA-N

>  <PUBCHEM_XLOGP3>  (13) 
2.4

>  <PUBCHEM_EXACT_MASS>  (13) 
315.0410689

>  <PUBCHEM_MOLECULAR_FORMULA>  (13) 
C15H10ClN3O3

>  <PUBCHEM_MOLECULAR_WEIGHT>  (13) 
315.71

>  <PUBCHEM_SMILES>  (13) 
C1C(=O)NC2=C(C=C(C=C2)[N+](=O)[O-])C(=N1)C3=CC=CC=C3Cl

>  <PUBCHEM_CONNECTIVITY_SMILES>  (13) 
C1C(=O)NC2=C(C=C(C=C2)[N+](=O)[O-])C(=N1)C3=CC=CC=C3Cl

>  <PUBCHEM_CACTVS_TPSA>  (13) 
87.3

>  <PUBCHEM_MONOISOTOPIC_WEIGHT>  (13) 
315.0410689

>  <PUBCHEM_TOTAL_CHARGE>  (13) 
0

>  <PUBCHEM_HEAVY_ATOM_COUNT>  (13) 
22

>  <PUBCHEM_ATOM_DEF_STEREO_COUNT>  (13) 
0

>  <PUBCHEM_ATOM_UDEF_STEREO_COUNT>  (13) 
0

>  <PUBCHEM_BOND_DEF_STEREO_COUNT>  (13) 
0

>  <PUBCHEM_BOND_UDEF_STEREO_COUNT>  (13) 
0

>  <PUBCHEM_ISOTOPIC_ATOM_COUNT>  (13) 
0

>  <PUBCHEM_COMPONENT_COUNT>  (13) 
1

>  <PUBCHEM_CACTVS_TAUTO_COUNT>  (13) 
-1

>  <PUBCHEM_COORDINATE_TYPE>  (13) 
1
5
255

>  <PUBCHEM_BONDANNOTATIONS>  (13) 
11  18  8
11  19  8
12  15  8
13  17  8
15  17  8
18  20  8
19  21  8
20  22  8
21  22  8
8  12  8
8  9  8
9  13  8

$$$$
3001055
     RDKit          2D

 21 21  0  0  0  0  0  0  0  0999 V2000
    8.0337   -0.7098    0.0000 S   0  0  0  0  0  0  0  0  0  0  0  0
   10.5369   -1.6577    0.0000 O   0  0  0  0  0  0  0  0  0  0  0  0
    2.0000    0.0615    0.0000 O   0  0  0  0  0  0  0  0  0  0  0  0
    3.1590    1.3487    0.0000 O   0  0  0  0  0  0  0  0  0  0  0  0
   13.0401   -0.7098    0.0000 N   0  0  0  0  0  0  0  0  0  0  0  0
    5.3884   -0.6587    0.0000 N   0  0  0  0  0  0  0  0  0  0  0  0
    4.8532    0.9886    0.0000 N   0  0  0  0  0  0  0  0  0  0  0  0
    2.9511    0.3705    0.0000 N   0  0  0  0  0  0  0  0  0  0  0  0
   12.2970   -1.3789    0.0000 C   0  0  0  0  0  0  0  0  0  0  0  0
   11.3459   -1.0699    0.0000 C   0  0  0  0  0  0  0  0  0  0  0  0
    9.7279   -1.0699    0.0000 C   0  0  0  0  0  0  0  0  0  0  0  0
    8.7768   -1.3789    0.0000 C   0  0  0  0  0  0  0  0  0  0  0  0
   11.0369   -0.1189    0.0000 C   0  0  0  0  0  0  0  0  0  0  0  0
   10.0369   -0.1189    0.0000 C   0  0  0  0  0  0  0  0  0  0  0  0
    7.0826   -1.0188    0.0000 C   0  0  0  0  0  0  0  0  0  0  0  0
    6.3395   -0.3497    0.0000 C   0  0  0  0  0  0  0  0  0  0  0  0
   13.9912   -1.0188    0.0000 C   0  0  0  0  0  0  0  0  0  0  0  0
   12.8322    0.2683    0.0000 C   0  0  0  0  0  0  0  0  0  0  0  0
    4.6453    0.0104    0.0000 C   0  0  0  0  0  0  0  0  0  0  0  0
    3.6942   -0.2986    0.0000 C   0  0  0  0  0  0  0  0  0  0  0  0
    4.1100    1.6577    0.0000 C   0  0  0  0  0  0  0  0  0  0  0  0
  1 12  1  0
  1 15  1  0
  2 10  1  0
  2 11  1  0
  3  8  1  0
  4  8  2  0
  5  9  1  0
  5 17  1  0
  5 18  1  0
  6 16  1  0
  6 19  1  0
  7 19  1  0
  7 21  1  0
  8 20  1  0
  9 10  1  0
 10 13  2  0
 11 12  1  0
 11 14  2  0
 13 14  1  0
 15 16  1  0
 19 20  2  0
M  CHG  2   3  -1   8   1
M  END
>  <PUBCHEM_COMPOUND_CID>  (14) 
3001055

>  <PUBCHEM_COMPOUND_CANONICALIZED>  (14) 
1

>  <PUBCHEM_CACTVS_COMPLEXITY>  (14) 
347

>  <PUBCHEM_CACTVS_HBOND_ACCEPTOR>  (14) 
7

>  <PUBCHEM_CACTVS_HBOND_DONOR>  (14) 
2

>  <PUBCHEM_CACTVS_ROTATABLE_BOND>  (14) 
9

>  <PUBCHEM_CACTVS_SUBSKEYS>  (14) 
AAADceBzsABAAAAAAAAAAAAAAAAAASAAAAAAAAAAAAAAAAABgAAAHgQUAAAACATF0ASzBIPQREiJAKBWQwCCCAAkIhAIiIGODMiOJjKktTuHGSjs0BM4qYeYEQIAAAAAAAAAAAAAAAAAAAAAAAAAAAAAAA==

>  <PUBCHEM_IUPAC_OPENEYE_NAME>  (14) 
(E)-N1'-[2-[[5-[(dimethylamino)methyl]-2-furyl]methylsulfanyl]ethyl]-N1-methyl-2-nitro-ethene-1,1-diamine

>  <PUBCHEM_IUPAC_CAS_NAME>  (14) 
(E)-N1'-[2-[[5-[(dimethylamino)methyl]-2-furanyl]methylthio]ethyl]-N1-methyl-2-nitroethene-1,1-diamine

>  <PUBCHEM_IUPAC_NAME_MARKUP>  (14) 
(<I>E</I>)-1-<I>N</I>&apos;-[2-[[5-[(dimethylamino)methyl]furan-2-yl]methylsulfanyl]ethyl]-1-<I>N</I>-methyl-2-nitroethene-1,1-diamine

>  <PUBCHEM_IUPAC_NAME>  (14) 
(E)-1-N'-[2-[[5-[(dimethylamino)methyl]furan-2-yl]methylsulfanyl]ethyl]-1-N-methyl-2-nitroethene-1,1-diamine

>  <PUBCHEM_IUPAC_SYSTEMATIC_NAME>  (14) 
(E)-N1'-[2-[[5-[(dimethylamino)methyl]furan-2-yl]methylsulfanyl]ethyl]-N1-methyl-2-nitro-ethene-1,1-diamine

>  <PUBCHEM_IUPAC_TRADITIONAL_NAME>  (14) 
dimethyl-[[5-[[2-[[(E)-1-(methylamino)-2-nitro-vinyl]amino]ethylthio]methyl]-2-furyl]methyl]amine

>  <PUBCHEM_IUPAC_INCHI>  (14) 
InChI=1S/C13H22N4O3S/c1-14-13(9-17(18)19)15-6-7-21-10-12-5-4-11(20-12)8-16(2)3/h4-5,9,14-15H,6-8,10H2,1-3H3/b13-9+

>  <PUBCHEM_IUPAC_INCHIKEY>  (14) 
VMXUWOKSQNHOCA-UKTHLTGXSA-N

>  <PUBCHEM_XLOGP3>  (14) 
0.3

>  <PUBCHEM_EXACT_MASS>  (14) 
314.14126175

>  <PUBCHEM_MOLECULAR_FORMULA>  (14) 
C13H22N4O3S

>  <PUBCHEM_MOLECULAR_WEIGHT>  (14) 
314.41

>  <PUBCHEM_SMILES>  (14) 
CN/C(=C\[N+](=O)[O-])/NCCSCC1=CC=C(O1)CN(C)C

>  <PUBCHEM_CONNECTIVITY_SMILES>  (14) 
CNC(=C[N+](=O)[O-])NCCSCC1=CC=C(O1)CN(C)C

>  <PUBCHEM_CACTVS_TPSA>  (14) 
112

>  <PUBCHEM_MONOISOTOPIC_WEIGHT>  (14) 
314.14126175

>  <PUBCHEM_TOTAL_CHARGE>  (14) 
0

>  <PUBCHEM_HEAVY_ATOM_COUNT>  (14) 
21

>  <PUBCHEM_ATOM_DEF_STEREO_COUNT>  (14) 
0

>  <PUBCHEM_ATOM_UDEF_STEREO_COUNT>  (14) 
0

>  <PUBCHEM_BOND_DEF_STEREO_COUNT>  (14) 
1

>  <PUBCHEM_BOND_UDEF_STEREO_COUNT>  (14) 
0

>  <PUBCHEM_ISOTOPIC_ATOM_COUNT>  (14) 
0

>  <PUBCHEM_COMPONENT_COUNT>  (14) 
1

>  <PUBCHEM_CACTVS_TAUTO_COUNT>  (14) 
-1

>  <PUBCHEM_COORDINATE_TYPE>  (14) 
1
5
255

>  <PUBCHEM_BONDANNOTATIONS>  (14) 
10  13  8
11  14  8
13  14  8
2  10  8
2  11  8

$$$$
3016
     RDKit          2D

 20 22  0  0  0  0  0  0  0  0999 V2000
    7.0444    0.0492    0.0000 Cl  0  0  0  0  0  0  0  0  0  0  0  0
    2.0000   -2.6577    0.0000 O   0  0  0  0  0  0  0  0  0  0  0  0
    3.5984   -2.0984    0.0000 N   0  0  0  0  0  0  0  0  0  0  0  0
    2.6235   -0.0740    0.0000 N   0  0  0  0  0  0  0  0  0  0  0  0
    4.3803   -0.4749    0.0000 C   0  0  0  0  0  0  0  0  0  0  0  0
    4.3803   -1.4749    0.0000 C   0  0  0  0  0  0  0  0  0  0  0  0
    3.5984    0.1486    0.0000 C   0  0  0  0  0  0  0  0  0  0  0  0
    2.1896   -0.9749    0.0000 C   0  0  0  0  0  0  0  0  0  0  0  0
    2.6235   -1.8759    0.0000 C   0  0  0  0  0  0  0  0  0  0  0  0
    3.8209    1.1235    0.0000 C   0  0  0  0  0  0  0  0  0  0  0  0
    5.2742    0.0597    0.0000 C   0  0  0  0  0  0  0  0  0  0  0  0
    5.2742   -2.0096    0.0000 C   0  0  0  0  0  0  0  0  0  0  0  0
    3.8209   -3.0734    0.0000 C   0  0  0  0  0  0  0  0  0  0  0  0
    6.1803   -0.4541    0.0000 C   0  0  0  0  0  0  0  0  0  0  0  0
    6.1803   -1.4957    0.0000 C   0  0  0  0  0  0  0  0  0  0  0  0
    3.0879    1.8037    0.0000 C   0  0  0  0  0  0  0  0  0  0  0  0
    4.7765    1.4182    0.0000 C   0  0  0  0  0  0  0  0  0  0  0  0
    3.3104    2.7786    0.0000 C   0  0  0  0  0  0  0  0  0  0  0  0
    4.9990    2.3932    0.0000 C   0  0  0  0  0  0  0  0  0  0  0  0
    4.2660    3.0734    0.0000 C   0  0  0  0  0  0  0  0  0  0  0  0
  1 14  1  0
  2  9  2  0
  3  6  1  0
  3  9  1  0
  3 13  1  0
  4  7  2  0
  4  8  1  0
  5  6  2  0
  5  7  1  0
  5 11  1  0
  6 12  1  0
  7 10  1  0
  8  9  1  0
 10 16  2  0
 10 17  1  0
 11 14  2  0
 12 15  2  0
 14 15  1  0
 16 18  1  0
 17 19  2  0
 18 20  2  0
 19 20  1  0
M  END
>  <PUBCHEM_COMPOUND_CID>  (15) 
3016

>  <PUBCHEM_COMPOUND_CANONICALIZED>  (15) 
1

>  <PUBCHEM_CACTVS_COMPLEXITY>  (15) 
403

>  <PUBCHEM_CACTVS_HBOND_ACCEPTOR>  (15) 
2

>  <PUBCHEM_CACTVS_HBOND_DONOR>  (15) 
0

>  <PUBCHEM_CACTVS_ROTATABLE_BOND>  (15) 
1

>  <PUBCHEM_CACTVS_SUBSKEYS>  (15) 
AAADccB7IAAEAAAAAAAAAAAAAAAAAAAAAAAwYAAABAAAAAABQAAAHgIAAAAADArBmCQywIMAAACoAyVyVACCAAAhBwAIiACoZpgIYKLBk5GUIAhghgDIyAcQgMAOAABAIAACAAAAAIBAAAQAAAAAAAAAAA==

>  <PUBCHEM_IUPAC_OPENEYE_NAME>  (15) 
7-chloro-1-methyl-5-phenyl-3H-1,4-benzodiazepin-2-one

>  <PUBCHEM_IUPAC_CAS_NAME>  (15) 
7-chloro-1-methyl-5-phenyl-3H-1,4-benzodiazepin-2-one

>  <PUBCHEM_IUPAC_NAME_MARKUP>  (15) 
7-chloro-1-methyl-5-phenyl-3<I>H</I>-1,4-benzodiazepin-2-one

>  <PUBCHEM_IUPAC_NAME>  (15) 
7-chloro-1-methyl-5-phenyl-3H-1,4-benzodiazepin-2-one

>  <PUBCHEM_IUPAC_SYSTEMATIC_NAME>  (15) 
7-chloranyl-1-methyl-5-phenyl-3H-1,4-benzodiazepin-2-one

>  <PUBCHEM_IUPAC_TRADITIONAL_NAME>  (15) 
7-chloro-1-methyl-5-phenyl-3H-1,4-benzodiazepin-2-one

>  <PUBCHEM_IUPAC_INCHI>  (15) 
InChI=1S/C16H13ClN2O/c1-19-14-8-7-12(17)9-13(14)16(18-10-15(19)20)11-5-3-2-4-6-11/h2-9H,10H2,1H3

>  <PUBCHEM_IUPAC_INCHIKEY>  (15) 
AAOVKJBEBIDNHE-UHFFFAOYSA-N

>  <PUBCHEM_XLOGP3>  (15) 
3

>  <PUBCHEM_EXACT_MASS>  (15) 
284.0716407

>  <PUBCHEM_MOLECULAR_FORMULA>  (15) 
C16H13ClN2O

>  <PUBCHEM_MOLECULAR_WEIGHT>  (15) 
284.74

>  <PUBCHEM_SMILES>  (15) 
CN1C(=O)CN=C(C2=C1C=CC(=C2)Cl)C3=CC=CC=C3

>  <PUBCHEM_CONNECTIVITY_SMILES>  (15) 
CN1C(=O)CN=C(C2=C1C=CC(=C2)Cl)C3=CC=CC=C3

>  <PUBCHEM_CACTVS_TPSA>  (15) 
32.7

>  <PUBCHEM_MONOISOTOPIC_WEIGHT>  (15) 
284.0716407

>  <PUBCHEM_TOTAL_CHARGE>  (15) 
0

>  <PUBCHEM_HEAVY_ATOM_COUNT>  (15) 
20

>  <PUBCHEM_ATOM_DEF_STEREO_COUNT>  (15) 
0

>  <PUBCHEM_ATOM_UDEF_STEREO_COUNT>  (15) 
0

>  <PUBCHEM_BOND_DEF_STEREO_COUNT>  (15) 
0

>  <PUBCHEM_BOND_UDEF_STEREO_COUNT>  (15) 
0

>  <PUBCHEM_ISOTOPIC_ATOM_COUNT>  (15) 
0

>  <PUBCHEM_COMPONENT_COUNT>  (15) 
1

>  <PUBCHEM_CACTVS_TAUTO_COUNT>  (15) 
-1

>  <PUBCHEM_COORDINATE_TYPE>  (15) 
1
5
255

>  <PUBCHEM_BONDANNOTATIONS>  (15) 
10  16  8
10  17  8
11  14  8
12  15  8
14  15  8
16  18  8
17  19  8
18  20  8
19  20  8
5  11  8
5  6  8
6  12  8

$$$$
3033
     RDKit          2D

 19 20  0  0  0  0  0  0  0  0999 V2000
    2.0000   -1.5600    0.0000 Cl  0  0  0  0  0  0  0  0  0  0  0  0
    5.4641   -1.5600    0.0000 Cl  0  0  0  0  0  0  0  0  0  0  0  0
    4.5981    2.9400    0.0000 O   0  0  0  0  0  0  0  0  0  0  0  0
    2.8660    2.9400    0.0000 O   0  0  0  0  0  0  0  0  0  0  0  0
    3.7321   -0.5600    0.0000 N   0  0  0  0  0  0  0  0  0  0  0  0
    4.5981    0.9400    0.0000 C   0  0  0  0  0  0  0  0  0  0  0  0
    4.5981   -0.0600    0.0000 C   0  0  0  0  0  0  0  0  0  0  0  0
    3.7321    1.4400    0.0000 C   0  0  0  0  0  0  0  0  0  0  0  0
    3.7321   -1.5600    0.0000 C   0  0  0  0  0  0  0  0  0  0  0  0
    5.4641    1.4400    0.0000 C   0  0  0  0  0  0  0  0  0  0  0  0
    5.4641   -0.5600    0.0000 C   0  0  0  0  0  0  0  0  0  0  0  0
    6.3301    0.9400    0.0000 C   0  0  0  0  0  0  0  0  0  0  0  0
    6.3301   -0.0600    0.0000 C   0  0  0  0  0  0  0  0  0  0  0  0
    2.8660   -2.0600    0.0000 C   0  0  0  0  0  0  0  0  0  0  0  0
    4.5981   -2.0600    0.0000 C   0  0  0  0  0  0  0  0  0  0  0  0
    3.7321    2.4400    0.0000 C   0  0  0  0  0  0  0  0  0  0  0  0
    2.8660   -3.0600    0.0000 C   0  0  0  0  0  0  0  0  0  0  0  0
    4.5981   -3.0600    0.0000 C   0  0  0  0  0  0  0  0  0  0  0  0
    3.7321   -3.5600    0.0000 C   0  0  0  0  0  0  0  0  0  0  0  0
  1 14  1  0
  2 15  1  0
  3 16  1  0
  4 16  2  0
  5  7  1  0
  5  9  1  0
  6  7  2  0
  6  8  1  0
  6 10  1  0
  7 11  1  0
  8 16  1  0
  9 14  2  0
  9 15  1  0
 10 12  2  0
 11 13  2  0
 12 13  1  0
 14 17  1  0
 15 18  2  0
 17 19  2  0
 18 19  1  0
M  END
>  <PUBCHEM_COMPOUND_CID>  (16) 
3033

>  <PUBCHEM_COMPOUND_CANONICALIZED>  (16) 
1

>  <PUBCHEM_CACTVS_COMPLEXITY>  (16) 
304

>  <PUBCHEM_CACTVS_HBOND_ACCEPTOR>  (16) 
3

>  <PUBCHEM_CACTVS_HBOND_DONOR>  (16) 
2

>  <PUBCHEM_CACTVS_ROTATABLE_BOND>  (16) 
4

>  <PUBCHEM_CACTVS_SUBSKEYS>  (16) 
AAADccByMAAGAAAAAAAAAAAAAAAAAAAAAAAwYAAAAAAAAAABQAAAHgIQCAAADAqBmCAwyILAAgCIAiTSSACCAAAhBwAIiAEAZogIIHLBl5HEYAhk0AHIyAe8yKCOAAAAAACCABAAAAAAAQQAIAAAAAAAAA==

>  <PUBCHEM_IUPAC_OPENEYE_NAME>  (16) 
2-[2-(2,6-dichloroanilino)phenyl]acetic acid

>  <PUBCHEM_IUPAC_CAS_NAME>  (16) 
2-[2-(2,6-dichloroanilino)phenyl]acetic acid

>  <PUBCHEM_IUPAC_NAME_MARKUP>  (16) 
2-[2-(2,6-dichloroanilino)phenyl]acetic acid

>  <PUBCHEM_IUPAC_NAME>  (16) 
2-[2-(2,6-dichloroanilino)phenyl]acetic acid

>  <PUBCHEM_IUPAC_SYSTEMATIC_NAME>  (16) 
2-[2-[[2,6-bis(chloranyl)phenyl]amino]phenyl]ethanoic acid

>  <PUBCHEM_IUPAC_TRADITIONAL_NAME>  (16) 
2-[2-(2,6-dichloroanilino)phenyl]acetic acid

>  <PUBCHEM_IUPAC_INCHI>  (16) 
InChI=1S/C14H11Cl2NO2/c15-10-5-3-6-11(16)14(10)17-12-7-2-1-4-9(12)8-13(18)19/h1-7,17H,8H2,(H,18,19)

>  <PUBCHEM_IUPAC_INCHIKEY>  (16) 
DCOPUUMXTXDBNB-UHFFFAOYSA-N

>  <PUBCHEM_XLOGP3>  (16) 
4.4

>  <PUBCHEM_EXACT_MASS>  (16) 
295.0166840

>  <PUBCHEM_MOLECULAR_FORMULA>  (16) 
C14H11Cl2NO2

>  <PUBCHEM_MOLECULAR_WEIGHT>  (16) 
296.1

>  <PUBCHEM_SMILES>  (16) 
C1=CC=C(C(=C1)CC(=O)O)NC2=C(C=CC=C2Cl)Cl

>  <PUBCHEM_CONNECTIVITY_SMILES>  (16) 
C1=CC=C(C(=C1)CC(=O)O)NC2=C(C=CC=C2Cl)Cl

>  <PUBCHEM_CACTVS_TPSA>  (16) 
49.3

>  <PUBCHEM_MONOISOTOPIC_WEIGHT>  (16) 
295.0166840

>  <PUBCHEM_TOTAL_CHARGE>  (16) 
0

>  <PUBCHEM_HEAVY_ATOM_COUNT>  (16) 
19

>  <PUBCHEM_ATOM_DEF_STEREO_COUNT>  (16) 
0

>  <PUBCHEM_ATOM_UDEF_STEREO_COUNT>  (16) 
0

>  <PUBCHEM_BOND_DEF_STEREO_COUNT>  (16) 
0

>  <PUBCHEM_BOND_UDEF_STEREO_COUNT>  (16) 
0

>  <PUBCHEM_ISOTOPIC_ATOM_COUNT>  (16) 
0

>  <PUBCHEM_COMPONENT_COUNT>  (16) 
1

>  <PUBCHEM_CACTVS_TAUTO_COUNT>  (16) 
-1

>  <PUBCHEM_COORDINATE_TYPE>  (16) 
1
5
255

>  <PUBCHEM_BONDANNOTATIONS>  (16) 
10  12  8
11  13  8
12  13  8
14  17  8
15  18  8
17  19  8
18  19  8
6  10  8
6  7  8
7  11  8
9  14  8
9  15  8

$$$$
33613
     RDKit          2D

 25 27  0  0  1  0  0  0  0  0999 V2000
   10.6404    0.8209    0.0000 S   0  0  0  0  0  0  0  0  0  0  0  0
    7.9754   -1.2008    0.0000 O   0  0  0  0  0  0  0  0  0  0  0  0
   10.2803   -2.4913    0.0000 O   0  0  0  0  0  0  0  0  0  0  0  0
   11.9276   -1.9561    0.0000 O   0  0  0  0  0  0  0  0  0  0  0  0
    6.7482    0.0024    0.0000 O   0  0  0  0  0  0  0  0  0  0  0  0
    2.4375    0.6490    0.0000 O   0  0  0  0  0  0  0  0  0  0  0  0
    9.6894   -0.4881    0.0000 N   0  0  0  0  0  0  0  0  0  0  0  0
    7.9754    1.2246    0.0000 N   0  0  0  0  0  0  0  0  0  0  0  0
    6.5641    2.6417    0.0000 N   0  0  0  0  0  0  0  0  0  0  0  0
    9.6894    0.5119    0.0000 C   0  0  0  0  0  0  0  0  0  0  0  0
   11.2282    0.0119    0.0000 C   0  0  0  0  0  0  0  0  0  0  0  0
   10.6404   -0.7971    0.0000 C   0  0  0  0  0  0  0  0  0  0  0  0
    8.6811    0.5160    0.0000 C   0  0  0  0  0  0  0  0  0  0  0  0
    8.6811   -0.4923    0.0000 C   0  0  0  0  0  0  0  0  0  0  0  0
   12.0372    0.5997    0.0000 C   0  0  0  0  0  0  0  0  0  0  0  0
   12.0372   -0.5759    0.0000 C   0  0  0  0  0  0  0  0  0  0  0  0
   10.9494   -1.7482    0.0000 C   0  0  0  0  0  0  0  0  0  0  0  0
    7.0090    0.9677    0.0000 C   0  0  0  0  0  0  0  0  0  0  0  0
    6.3033    1.6763    0.0000 C   0  0  0  0  0  0  0  0  0  0  0  0
    5.3369    1.4195    0.0000 C   0  0  0  0  0  0  0  0  0  0  0  0
    5.0761    0.4541    0.0000 C   0  0  0  0  0  0  0  0  0  0  0  0
    4.6312    2.1280    0.0000 C   0  0  0  0  0  0  0  0  0  0  0  0
    4.1096    0.1972    0.0000 C   0  0  0  0  0  0  0  0  0  0  0  0
    3.6648    1.8712    0.0000 C   0  0  0  0  0  0  0  0  0  0  0  0
    3.4040    0.9058    0.0000 C   0  0  0  0  0  0  0  0  0  0  0  0
 10  1  1  1
  1 11  1  0
  2 14  2  0
  3 17  1  0
  4 17  2  0
  5 18  2  0
  6 25  1  0
  7 10  1  0
  7 12  1  0
  7 14  1  0
 13  8  1  1
  8 18  1  0
 19  9  1  1
 10 13  1  0
 11 12  1  0
 11 15  1  0
 11 16  1  0
 12 17  1  6
 13 14  1  0
 18 19  1  0
 19 20  1  0
 20 21  2  0
 20 22  1  0
 21 23  1  0
 22 24  2  0
 23 25  2  0
 24 25  1  0
M  END
>  <PUBCHEM_COMPOUND_CID>  (17) 
33613

>  <PUBCHEM_COMPOUND_CANONICALIZED>  (17) 
1

>  <PUBCHEM_CACTVS_COMPLEXITY>  (17) 
590

>  <PUBCHEM_CACTVS_HBOND_ACCEPTOR>  (17) 
7

>  <PUBCHEM_CACTVS_HBOND_DONOR>  (17) 
4

>  <PUBCHEM_CACTVS_ROTATABLE_BOND>  (17) 
4

>  <PUBCHEM_CACTVS_SUBSKEYS>  (17) 
AAADceB7OABAAAAAAAAAAAAAAABYAWAAAAAwAAAABYAAAAABAAAAHgQQCAAADCzF2ASyDoPAAgiIAiHSGACCAABgIBAIiIGODIgKZjqilTOUcABk1hG4mAeY2IGOIAAAAAAAAABAAAAAAAAAAAAAAAAAAA==

>  <PUBCHEM_IUPAC_OPENEYE_NAME>  (17) 
(2S,5R,6R)-6-[[(2R)-2-amino-2-(4-hydroxyphenyl)acetyl]amino]-3,3-dimethyl-7-oxo-4-thia-1-azabicyclo[3.2.0]heptane-2-carboxylic acid

>  <PUBCHEM_IUPAC_CAS_NAME>  (17) 
(2S,5R,6R)-6-[[(2R)-2-amino-2-(4-hydroxyphenyl)-1-oxoethyl]amino]-3,3-dimethyl-7-oxo-4-thia-1-azabicyclo[3.2.0]heptane-2-carboxylic acid

>  <PUBCHEM_IUPAC_NAME_MARKUP>  (17) 
(2<I>S</I>,5<I>R</I>,6<I>R</I>)-6-[[(2<I>R</I>)-2-amino-2-(4-hydroxyphenyl)acetyl]amino]-3,3-dimethyl-7-oxo-4-thia-1-azabicyclo[3.2.0]heptane-2-carboxylic acid

>  <PUBCHEM_IUPAC_NAME>  (17) 
(2S,5R,6R)-6-[[(2R)-2-amino-2-(4-hydroxyphenyl)acetyl]amino]-3,3-dimethyl-7-oxo-4-thia-1-azabicyclo[3.2.0]heptane-2-carboxylic acid

>  <PUBCHEM_IUPAC_SYSTEMATIC_NAME>  (17) 
(2S,5R,6R)-6-[[(2R)-2-azanyl-2-(4-hydroxyphenyl)ethanoyl]amino]-3,3-dimethyl-7-oxidanylidene-4-thia-1-azabicyclo[3.2.0]heptane-2-carboxylic acid

>  <PUBCHEM_IUPAC_TRADITIONAL_NAME>  (17) 
(2S,5R,6R)-6-[[(2R)-2-amino-2-(4-hydroxyphenyl)acetyl]amino]-7-keto-3,3-dimethyl-4-thia-1-azabicyclo[3.2.0]heptane-2-carboxylic acid

>  <PUBCHEM_IUPAC_INCHI>  (17) 
InChI=1S/C16H19N3O5S/c1-16(2)11(15(23)24)19-13(22)10(14(19)25-16)18-12(21)9(17)7-3-5-8(20)6-4-7/h3-6,9-11,14,20H,17H2,1-2H3,(H,18,21)(H,23,24)/t9-,10-,11+,14-/m1/s1

>  <PUBCHEM_IUPAC_INCHIKEY>  (17) 
LSQZJLSUYDQPKJ-NJBDSQKTSA-N

>  <PUBCHEM_XLOGP3>  (17) 
-2

>  <PUBCHEM_EXACT_MASS>  (17) 
365.10454189

>  <PUBCHEM_MOLECULAR_FORMULA>  (17) 
C16H19N3O5S

>  <PUBCHEM_MOLECULAR_WEIGHT>  (17) 
365.4

>  <PUBCHEM_SMILES>  (17) 
CC1([C@@H](N2[C@H](S1)[C@@H](C2=O)NC(=O)[C@@H](C3=CC=C(C=C3)O)N)C(=O)O)C

>  <PUBCHEM_CONNECTIVITY_SMILES>  (17) 
CC1(C(N2C(S1)C(C2=O)NC(=O)C(C3=CC=C(C=C3)O)N)C(=O)O)C

>  <PUBCHEM_CACTVS_TPSA>  (17) 
158

>  <PUBCHEM_MONOISOTOPIC_WEIGHT>  (17) 
365.10454189

>  <PUBCHEM_TOTAL_CHARGE>  (17) 
0

>  <PUBCHEM_HEAVY_ATOM_COUNT>  (17) 
25

>  <PUBCHEM_ATOM_DEF_STEREO_COUNT>  (17) 
4

>  <PUBCHEM_ATOM_UDEF_STEREO_COUNT>  (17) 
0

>  <PUBCHEM_BOND_DEF_STEREO_COUNT>  (17) 
0

>  <PUBCHEM_BOND_UDEF_STEREO_COUNT>  (17) 
0

>  <PUBCHEM_ISOTOPIC_ATOM_COUNT>  (17) 
0

>  <PUBCHEM_COMPONENT_COUNT>  (17) 
1

>  <PUBCHEM_CACTVS_TAUTO_COUNT>  (17) 
-1

>  <PUBCHEM_COORDINATE_TYPE>  (17) 
1
5
255

>  <PUBCHEM_BONDANNOTATIONS>  (17) 
10  26  6
12  17  6
20  21  8
20  22  8
21  23  8
22  24  8
23  25  8
24  25  8
13  8  5
19  9  5

$$$$
3386
     RDKit          2D

 22 23  0  0  1  0  0  0  0  0999 V2000
    7.3301    3.2500    0.0000 F   0  0  0  0  0  0  0  0  0  0  0  0
    6.3301    4.2500    0.0000 F   0  0  0  0  0  0  0  0  0  0  0  0
    5.3301    3.2500    0.0000 F   0  0  0  0  0  0  0  0  0  0  0  0
    6.3301   -0.7500    0.0000 O   0  0  0  0  0  0  0  0  0  0  0  0
    2.8660   -0.7500    0.0000 N   0  0  0  0  0  0  0  0  0  0  0  0
    5.4641   -1.2500    0.0000 C   0  0  0  0  0  0  0  0  0  0  0  0
    4.5981   -0.7500    0.0000 C   0  0  0  0  0  0  0  0  0  0  0  0
    5.4641   -2.2500    0.0000 C   0  0  0  0  0  0  0  0  0  0  0  0
    3.7321   -1.2500    0.0000 C   0  0  0  0  0  0  0  0  0  0  0  0
    6.3301   -2.7500    0.0000 C   0  0  0  0  0  0  0  0  0  0  0  0
    4.5981   -2.7500    0.0000 C   0  0  0  0  0  0  0  0  0  0  0  0
    6.3301    0.2500    0.0000 C   0  0  0  0  0  0  0  0  0  0  0  0
    6.3301   -3.7500    0.0000 C   0  0  0  0  0  0  0  0  0  0  0  0
    4.5981   -3.7500    0.0000 C   0  0  0  0  0  0  0  0  0  0  0  0
    5.4641    0.7500    0.0000 C   0  0  0  0  0  0  0  0  0  0  0  0
    7.1962    0.7500    0.0000 C   0  0  0  0  0  0  0  0  0  0  0  0
    6.3301    2.2500    0.0000 C   0  0  0  0  0  0  0  0  0  0  0  0
    5.4641   -4.2500    0.0000 C   0  0  0  0  0  0  0  0  0  0  0  0
    2.0000   -1.2500    0.0000 C   0  0  0  0  0  0  0  0  0  0  0  0
    5.4641    1.7500    0.0000 C   0  0  0  0  0  0  0  0  0  0  0  0
    7.1962    1.7500    0.0000 C   0  0  0  0  0  0  0  0  0  0  0  0
    6.3301    3.2500    0.0000 C   0  0  0  0  0  0  0  0  0  0  0  0
  1 22  1  0
  2 22  1  0
  3 22  1  0
  4  6  1  0
  4 12  1  0
  5  9  1  0
  5 19  1  0
  6  7  1  0
  6  8  1  0
  7  9  1  0
  8 10  2  0
  8 11  1  0
 10 13  1  0
 11 14  2  0
 12 15  2  0
 12 16  1  0
 13 18  2  0
 14 18  1  0
 15 20  1  0
 16 21  2  0
 17 20  2  0
 17 21  1  0
 17 22  1  0
M  END
>  <PUBCHEM_COMPOUND_CID>  (18) 
3386

>  <PUBCHEM_COMPOUND_CANONICALIZED>  (18) 
1

>  <PUBCHEM_CACTVS_COMPLEXITY>  (18) 
308

>  <PUBCHEM_CACTVS_HBOND_ACCEPTOR>  (18) 
5

>  <PUBCHEM_CACTVS_HBOND_DONOR>  (18) 
1

>  <PUBCHEM_CACTVS_ROTATABLE_BOND>  (18) 
6

>  <PUBCHEM_CACTVS_SUBSKEYS>  (18) 
AAADceB6IYAAAAAAAAAAAAAAAAAAAAAAAAAwYAAAAAAAAAABQAAAHwAQAAAADBThmBYyBoLABACAAiBCAAACCAAgIAAIiIAOCIgMJiKEsRqGOCCm0BEIqAeQwKAOIAAAAAAAAABAAAAAAAAAAAAAAAAAAA==

>  <PUBCHEM_IUPAC_OPENEYE_NAME>  (18) 
N-methyl-3-phenyl-3-[4-(trifluoromethyl)phenoxy]propan-1-amine

>  <PUBCHEM_IUPAC_CAS_NAME>  (18) 
N-methyl-3-phenyl-3-[4-(trifluoromethyl)phenoxy]-1-propanamine

>  <PUBCHEM_IUPAC_NAME_MARKUP>  (18) 
<I>N</I>-methyl-3-phenyl-3-[4-(trifluoromethyl)phenoxy]propan-1-amine

>  <PUBCHEM_IUPAC_NAME>  (18) 
N-methyl-3-phenyl-3-[4-(trifluoromethyl)phenoxy]propan-1-amine

>  <PUBCHEM_IUPAC_SYSTEMATIC_NAME>  (18) 
N-methyl-3-phenyl-3-[4-(trifluoromethyl)phenoxy]propan-1-amine

>  <PUBCHEM_IUPAC_TRADITIONAL_NAME>  (18) 
methyl-[3-phenyl-3-[4-(trifluoromethyl)phenoxy]propyl]amine

>  <PUBCHEM_IUPAC_INCHI>  (18) 
InChI=1S/C17H18F3NO/c1-21-12-11-16(13-5-3-2-4-6-13)22-15-9-7-14(8-10-15)17(18,19)20/h2-10,16,21H,11-12H2,1H3

>  <PUBCHEM_IUPAC_INCHIKEY>  (18) 
RTHCYVBBDHJXIQ-UHFFFAOYSA-N

>  <PUBCHEM_XLOGP3>  (18) 
4

>  <PUBCHEM_EXACT_MASS>  (18) 
309.13404868

>  <PUBCHEM_MOLECULAR_FORMULA>  (18) 
C17H18F3NO

>  <PUBCHEM_MOLECULAR_WEIGHT>  (18) 
309.33

>  <PUBCHEM_SMILES>  (18) 
CNCCC(C1=CC=CC=C1)OC2=CC=C(C=C2)C(F)(F)F

>  <PUBCHEM_CONNECTIVITY_SMILES>  (18) 
CNCCC(C1=CC=CC=C1)OC2=CC=C(C=C2)C(F)(F)F

>  <PUBCHEM_CACTVS_TPSA>  (18) 
21.3

>  <PUBCHEM_MONOISOTOPIC_WEIGHT>  (18) 
309.13404868

>  <PUBCHEM_TOTAL_CHARGE>  (18) 
0

>  <PUBCHEM_HEAVY_ATOM_COUNT>  (18) 
22

>  <PUBCHEM_ATOM_DEF_STEREO_COUNT>  (18) 
0

>  <PUBCHEM_ATOM_UDEF_STEREO_COUNT>  (18) 
1

>  <PUBCHEM_BOND_DEF_STEREO_COUNT>  (18) 
0

>  <PUBCHEM_BOND_UDEF_STEREO_COUNT>  (18) 
0

>  <PUBCHEM_ISOTOPIC_ATOM_COUNT>  (18) 
0

>  <PUBCHEM_COMPONENT_COUNT>  (18) 
1

>  <PUBCHEM_CACTVS_TAUTO_COUNT>  (18) 
-1

>  <PUBCHEM_COORDINATE_TYPE>  (18) 
1
5
255

>  <PUBCHEM_BONDANNOTATIONS>  (18) 
10  13  8
11  14  8
12  15  8
12  16  8
13  18  8
14  18  8
15  20  8
16  21  8
17  20  8
17  21  8
6  7  3
8  10  8
8  11  8

$$$$
3440
     RDKit          2D

 21 22  0  0  0  0  0  0  0  0999 V2000
    2.0000    1.8644    0.0000 Cl  0  0  0  0  0  0  0  0  0  0  0  0
    3.7321    2.8644    0.0000 S   0  0  0  0  0  0  0  0  0  0  0  0
    3.6750   -3.2234    0.0000 O   0  0  0  0  0  0  0  0  0  0  0  0
    4.7321    2.8644    0.0000 O   0  0  0  0  0  0  0  0  0  0  0  0
    2.7321    2.8644    0.0000 O   0  0  0  0  0  0  0  0  0  0  0  0
    6.3301    0.3644    0.0000 O   0  0  0  0  0  0  0  0  0  0  0  0
    5.4641   -1.1356    0.0000 O   0  0  0  0  0  0  0  0  0  0  0  0
    3.7321   -1.1356    0.0000 N   0  0  0  0  0  0  0  0  0  0  0  0
    3.7321    3.8644    0.0000 N   0  0  0  0  0  0  0  0  0  0  0  0
    3.7321   -0.1356    0.0000 C   0  0  0  0  0  0  0  0  0  0  0  0
    3.7321    1.8644    0.0000 C   0  0  0  0  0  0  0  0  0  0  0  0
    4.5981    0.3644    0.0000 C   0  0  0  0  0  0  0  0  0  0  0  0
    4.5981    1.3644    0.0000 C   0  0  0  0  0  0  0  0  0  0  0  0
    2.8660   -1.6356    0.0000 C   0  0  0  0  0  0  0  0  0  0  0  0
    2.8660    0.3644    0.0000 C   0  0  0  0  0  0  0  0  0  0  0  0
    2.8660    1.3644    0.0000 C   0  0  0  0  0  0  0  0  0  0  0  0
    2.8660   -2.6356    0.0000 C   0  0  0  0  0  0  0  0  0  0  0  0
    5.4641   -0.1356    0.0000 C   0  0  0  0  0  0  0  0  0  0  0  0
    2.0570   -3.2234    0.0000 C   0  0  0  0  0  0  0  0  0  0  0  0
    2.3660   -4.1744    0.0000 C   0  0  0  0  0  0  0  0  0  0  0  0
    3.3660   -4.1744    0.0000 C   0  0  0  0  0  0  0  0  0  0  0  0
  1 16  1  0
  2  4  2  0
  2  5  2  0
  2  9  1  0
  2 11  1  0
  3 17  1  0
  3 21  1  0
  6 18  1  0
  7 18  2  0
  8 10  1  0
  8 14  1  0
 10 12  2  0
 10 15  1  0
 11 13  2  0
 11 16  1  0
 12 13  1  0
 12 18  1  0
 14 17  1  0
 15 16  2  0
 17 19  2  0
 19 20  1  0
 20 21  2  0
M  END
>  <PUBCHEM_COMPOUND_CID>  (19) 
3440

>  <PUBCHEM_COMPOUND_CANONICALIZED>  (19) 
1

>  <PUBCHEM_CACTVS_COMPLEXITY>  (19) 
481

>  <PUBCHEM_CACTVS_HBOND_ACCEPTOR>  (19) 
7

>  <PUBCHEM_CACTVS_HBOND_DONOR>  (19) 
3

>  <PUBCHEM_CACTVS_ROTATABLE_BOND>  (19) 
5

>  <PUBCHEM_CACTVS_SUBSKEYS>  (19) 
AAADccBzOABEAAAAAAAAAAAAAAAAASAAAAAwAAAAAAAAAAABwAAAHgYQSAAADA7h2CYwzYLABkKIAqzSyHDCCBAlJwAIiJmObsgOJjrFt7uHeajm0BHY+ceY2SKOBAQAgAICAIAICAEABAQBAAAAAAAAAA==

>  <PUBCHEM_IUPAC_OPENEYE_NAME>  (19) 
4-chloro-2-(2-furylmethylamino)-5-sulfamoyl-benzoic acid

>  <PUBCHEM_IUPAC_CAS_NAME>  (19) 
4-chloro-2-(2-furanylmethylamino)-5-sulfamoylbenzoic acid

>  <PUBCHEM_IUPAC_NAME_MARKUP>  (19) 
4-chloro-2-(furan-2-ylmethylamino)-5-sulfamoylbenzoic acid

>  <PUBCHEM_IUPAC_NAME>  (19) 
4-chloro-2-(furan-2-ylmethylamino)-5-sulfamoylbenzoic acid

>  <PUBCHEM_IUPAC_SYSTEMATIC_NAME>  (19) 
4-chloranyl-2-(furan-2-ylmethylamino)-5-sulfamoyl-benzoic acid

>  <PUBCHEM_IUPAC_TRADITIONAL_NAME>  (19) 
4-chloro-2-(2-furfurylamino)-5-sulfamoyl-benzoic acid

>  <PUBCHEM_IUPAC_INCHI>  (19) 
InChI=1S/C12H11ClN2O5S/c13-9-5-10(15-6-7-2-1-3-20-7)8(12(16)17)4-11(9)21(14,18)19/h1-5,15H,6H2,(H,16,17)(H2,14,18,19)

>  <PUBCHEM_IUPAC_INCHIKEY>  (19) 
ZZUFCTLCJUWOSV-UHFFFAOYSA-N

>  <PUBCHEM_XLOGP3>  (19) 
2

>  <PUBCHEM_EXACT_MASS>  (19) 
330.0077203

>  <PUBCHEM_MOLECULAR_FORMULA>  (19) 
C12H11ClN2O5S

>  <PUBCHEM_MOLECULAR_WEIGHT>  (19) 
330.74

>  <PUBCHEM_SMILES>  (19) 
C1=COC(=C1)CNC2=CC(=C(C=C2C(=O)O)S(=O)(=O)N)Cl

>  <PUBCHEM_CONNECTIVITY_SMILES>  (19) 
C1=COC(=C1)CNC2=CC(=C(C=C2C(=O)O)S(=O)(=O)N)Cl

>  <PUBCHEM_CACTVS_TPSA>  (19) 
131

>  <PUBCHEM_MONOISOTOPIC_WEIGHT>  (19) 
330.0077203

>  <PUBCHEM_TOTAL_CHARGE>  (19) 
0

>  <PUBCHEM_HEAVY_ATOM_COUNT>  (19) 
21

>  <PUBCHEM_ATOM_DEF_STEREO_COUNT>  (19) 
0

>  <PUBCHEM_ATOM_UDEF_STEREO_COUNT>  (19) 
0

>  <PUBCHEM_BOND_DEF_STEREO_COUNT>  (19) 
0

>  <PUBCHEM_BOND_UDEF_STEREO_COUNT>  (19) 
0

>  <PUBCHEM_ISOTOPIC_ATOM_COUNT>  (19) 
0

>  <PUBCHEM_COMPONENT_COUNT>  (19) 
1

>  <PUBCHEM_CACTVS_TAUTO_COUNT>  (19) 
-1

>  <PUBCHEM_COORDINATE_TYPE>  (19) 
1
5
255

>  <PUBCHEM_BONDANNOTATIONS>  (19) 
10  12  8
10  15  8
11  13  8
11  16  8
12  13  8
15  16  8
17  19  8
19  20  8
20  21  8
3  17  8
3  21  8

$$$$
3672
     RDKit          2D

 15 15  0  0  1  0  0  0  0  0999 V2000
    4.5981    3.3450    0.0000 O   0  0  0  0  0  0  0  0  0  0  0  0
    5.4641    1.8450    0.0000 O   0  0  0  0  0  0  0  0  0  0  0  0
    2.8660   -2.6550    0.0000 C   0  0  0  0  0  0  0  0  0  0  0  0
    3.7321   -2.1550    0.0000 C   0  0  0  0  0  0  0  0  0  0  0  0
    3.7321   -1.1550    0.0000 C   0  0  0  0  0  0  0  0  0  0  0  0
    3.7321    0.8450    0.0000 C   0  0  0  0  0  0  0  0  0  0  0  0
    3.7321    1.8450    0.0000 C   0  0  0  0  0  0  0  0  0  0  0  0
    2.8660   -3.6550    0.0000 C   0  0  0  0  0  0  0  0  0  0  0  0
    2.0000   -2.1550    0.0000 C   0  0  0  0  0  0  0  0  0  0  0  0
    4.5981   -0.6550    0.0000 C   0  0  0  0  0  0  0  0  0  0  0  0
    2.8660   -0.6550    0.0000 C   0  0  0  0  0  0  0  0  0  0  0  0
    4.5981    0.3450    0.0000 C   0  0  0  0  0  0  0  0  0  0  0  0
    2.8660    0.3450    0.0000 C   0  0  0  0  0  0  0  0  0  0  0  0
    2.8660    2.3450    0.0000 C   0  0  0  0  0  0  0  0  0  0  0  0
    4.5981    2.3450    0.0000 C   0  0  0  0  0  0  0  0  0  0  0  0
  1 15  1  0
  2 15  2  0
  3  4  1  0
  3  8  1  0
  3  9  1  0
  4  5  1  0
  5 10  2  0
  5 11  1  0
  6  7  1  0
  6 12  2  0
  6 13  1  0
  7 14  1  0
  7 15  1  0
 10 12  1  0
 11 13  2  0
M  END
>  <PUBCHEM_COMPOUND_CID>  (20) 
3672

>  <PUBCHEM_COMPOUND_CANONICALIZED>  (20) 
1

>  <PUBCHEM_CACTVS_COMPLEXITY>  (20) 
203

>  <PUBCHEM_CACTVS_HBOND_ACCEPTOR>  (20) 
2

>  <PUBCHEM_CACTVS_HBOND_DONOR>  (20) 
1

>  <PUBCHEM_CACTVS_ROTATABLE_BOND>  (20) 
4

>  <PUBCHEM_CACTVS_SUBSKEYS>  (20) 
AAADceBwMAAAAAAAAAAAAAAAAAAAAAAAAAAwAAAAAAAAAAABAAAAGgAACAAADQCAmAAyCIAAAgCIAiDSCAACAAAgAAAIiAEAAIgIIDKAFRCAYAAkwAEIiAeIyOCOwAAAAAAAAACAAAAAAAAAAAAAAAAAAA==

>  <PUBCHEM_IUPAC_OPENEYE_NAME>  (20) 
2-(4-isobutylphenyl)propanoic acid

>  <PUBCHEM_IUPAC_CAS_NAME>  (20) 
2-[4-(2-methylpropyl)phenyl]propanoic acid

>  <PUBCHEM_IUPAC_NAME_MARKUP>  (20) 
2-[4-(2-methylpropyl)phenyl]propanoic acid

>  <PUBCHEM_IUPAC_NAME>  (20) 
2-[4-(2-methylpropyl)phenyl]propanoic acid

>  <PUBCHEM_IUPAC_SYSTEMATIC_NAME>  (20) 
2-[4-(2-methylpropyl)phenyl]propanoic acid

>  <PUBCHEM_IUPAC_TRADITIONAL_NAME>  (20) 
2-(4-isobutylphenyl)propionic acid

>  <PUBCHEM_IUPAC_INCHI>  (20) 
InChI=1S/C13H18O2/c1-9(2)8-11-4-6-12(7-5-11)10(3)13(14)15/h4-7,9-10H,8H2,1-3H3,(H,14,15)

>  <PUBCHEM_IUPAC_INCHIKEY>  (20) 
HEFNNWSXXWATRW-UHFFFAOYSA-N

>  <PUBCHEM_XLOGP3>  (20) 
3.5

>  <PUBCHEM_EXACT_MASS>  (20) 
206.130679813

>  <PUBCHEM_MOLECULAR_FORMULA>  (20) 
C13H18O2

>  <PUBCHEM_MOLECULAR_WEIGHT>  (20) 
206.28

>  <PUBCHEM_SMILES>  (20) 
CC(C)CC1=CC=C(C=C1)C(C)C(=O)O

>  <PUBCHEM_CONNECTIVITY_SMILES>  (20) 
CC(C)CC1=CC=C(C=C1)C(C)C(=O)O

>  <PUBCHEM_CACTVS_TPSA>  (20) 
37.3

>  <PUBCHEM_MONOISOTOPIC_WEIGHT>  (20) 
206.130679813

>  <PUBCHEM_TOTAL_CHARGE>  (20) 
0

>  <PUBCHEM_HEAVY_ATOM_COUNT>  (20) 
15

>  <PUBCHEM_ATOM_DEF_STEREO_COUNT>  (20) 
0

>  <PUBCHEM_ATOM_UDEF_STEREO_COUNT>  (20) 
1

>  <PUBCHEM_BOND_DEF_STEREO_COUNT>  (20) 
0

>  <PUBCHEM_BOND_UDEF_STEREO_COUNT>  (20) 
0

>  <PUBCHEM_ISOTOPIC_ATOM_COUNT>  (20) 
0

>  <PUBCHEM_COMPONENT_COUNT>  (20) 
1

>  <PUBCHEM_CACTVS_TAUTO_COUNT>  (20) 
-1

>  <PUBCHEM_COORDINATE_TYPE>  (20) 
1
5
255

>  <PUBCHEM_BONDANNOTATIONS>  (20) 
10  12  8
11  13  8
5  10  8
5  11  8
6  12  8
6  13  8
7  19  3

$$$$
3957
     RDKit          2D

 27 30  0  0  0  0  0  0  0  0999 V2000
    2.0000    3.2317    0.0000 Cl  0  0  0  0  0  0  0  0  0  0  0  0
    6.7034   -2.5953    0.0000 O   0  0  0  0  0  0  0  0  0  0  0  0
    4.9714   -2.5953    0.0000 O   0  0  0  0  0  0  0  0  0  0  0  0
    5.8374   -1.0953    0.0000 N   0  0  0  0  0  0  0  0  0  0  0  0
    7.4909    1.6184    0.0000 N   0  0  0  0  0  0  0  0  0  0  0  0
    5.8374    0.9047    0.0000 C   0  0  0  0  0  0  0  0  0  0  0  0
    6.7034    0.4047    0.0000 C   0  0  0  0  0  0  0  0  0  0  0  0
    4.9714    0.4047    0.0000 C   0  0  0  0  0  0  0  0  0  0  0  0
    5.8374    1.9047    0.0000 C   0  0  0  0  0  0  0  0  0  0  0  0
    6.7034   -0.5953    0.0000 C   0  0  0  0  0  0  0  0  0  0  0  0
    4.9714   -0.5953    0.0000 C   0  0  0  0  0  0  0  0  0  0  0  0
    4.9365    2.3386    0.0000 C   0  0  0  0  0  0  0  0  0  0  0  0
    6.7384    2.3386    0.0000 C   0  0  0  0  0  0  0  0  0  0  0  0
    4.7139    3.3135    0.0000 C   0  0  0  0  0  0  0  0  0  0  0  0
    5.3374    4.0953    0.0000 C   0  0  0  0  0  0  0  0  0  0  0  0
    6.3374    4.0953    0.0000 C   0  0  0  0  0  0  0  0  0  0  0  0
    6.9609    3.3135    0.0000 C   0  0  0  0  0  0  0  0  0  0  0  0
    4.1839    1.6184    0.0000 C   0  0  0  0  0  0  0  0  0  0  0  0
    5.8374   -2.0953    0.0000 C   0  0  0  0  0  0  0  0  0  0  0  0
    3.7234    3.6359    0.0000 C   0  0  0  0  0  0  0  0  0  0  0  0
    7.9514    3.6358    0.0000 C   0  0  0  0  0  0  0  0  0  0  0  0
    3.1862    1.9178    0.0000 C   0  0  0  0  0  0  0  0  0  0  0  0
    2.9544    2.9333    0.0000 C   0  0  0  0  0  0  0  0  0  0  0  0
    8.7204    2.9332    0.0000 C   0  0  0  0  0  0  0  0  0  0  0  0
    8.4886    1.9177    0.0000 C   0  0  0  0  0  0  0  0  0  0  0  0
    6.7034   -3.5953    0.0000 C   0  0  0  0  0  0  0  0  0  0  0  0
    7.5694   -4.0953    0.0000 C   0  0  0  0  0  0  0  0  0  0  0  0
  1 23  1  0
  2 19  1  0
  2 26  1  0
  3 19  2  0
  4 10  1  0
  4 11  1  0
  4 19  1  0
  5 13  2  0
  5 25  1  0
  6  7  1  0
  6  8  1  0
  6  9  2  0
  7 10  1  0
  8 11  1  0
  9 12  1  0
  9 13  1  0
 12 14  2  0
 12 18  1  0
 13 17  1  0
 14 15  1  0
 14 20  1  0
 15 16  1  0
 16 17  1  0
 17 21  2  0
 18 22  2  0
 20 23  2  0
 21 24  1  0
 22 23  1  0
 24 25  2  0
 26 27  1  0
M  END
>  <PUBCHEM_COMPOUND_CID>  (21) 
3957

>  <PUBCHEM_COMPOUND_CANONICALIZED>  (21) 
1

>  <PUBCHEM_CACTVS_COMPLEXITY>  (21) 
569

>  <PUBCHEM_CACTVS_HBOND_ACCEPTOR>  (21) 
3

>  <PUBCHEM_CACTVS_HBOND_DONOR>  (21) 
0

>  <PUBCHEM_CACTVS_ROTATABLE_BOND>  (21) 
2

>  <PUBCHEM_CACTVS_SUBSKEYS>  (21) 
AAADceB7MAAEAAAAAAAAAAAAAAAAAAAAAAA8WIAABgAAAAABwAAAHgIAAAAADArhniY+iJMIFACoAzRnXACCgCAxByAI2CA4ZpgIIOLBk5GMIAhghgDIyAcQgMAOhAAAIAAQAAAIAABAACAAAAAAAAAAAA==

>  <PUBCHEM_IUPAC_OPENEYE_NAME>  (21) 
ethyl 4-(13-chloro-4-azatricyclo[9.4.0.03,8]pentadeca-1(11),3(8),4,6,12,14-hexaen-2-ylidene)piperidine-1-carboxylate

>  <PUBCHEM_IUPAC_CAS_NAME>  (21) 
4-(13-chloro-4-azatricyclo[9.4.0.03,8]pentadeca-1(11),3(8),4,6,12,14-hexaen-2-ylidene)-1-piperidinecarboxylic acid ethyl ester

>  <PUBCHEM_IUPAC_NAME_MARKUP>  (21) 
ethyl 4-(13-chloro-4-azatricyclo[9.4.0.0<SUP>3,8</SUP>]pentadeca-1(11),3(8),4,6,12,14-hexaen-2-ylidene)piperidine-1-carboxylate

>  <PUBCHEM_IUPAC_NAME>  (21) 
ethyl 4-(13-chloro-4-azatricyclo[9.4.0.03,8]pentadeca-1(11),3(8),4,6,12,14-hexaen-2-ylidene)piperidine-1-carboxylate

>  <PUBCHEM_IUPAC_SYSTEMATIC_NAME>  (21) 
ethyl 4-(13-chloranyl-4-azatricyclo[9.4.0.03,8]pentadeca-1(11),3(8),4,6,12,14-hexaen-2-ylidene)piperidine-1-carboxylate

>  <PUBCHEM_IUPAC_TRADITIONAL_NAME>  (21) 
4-(13-chloro-4-azatricyclo[9.4.0.03,8]pentadeca-1(11),3(8),4,6,12,14-hexaen-2-ylidene)piperidine-1-carboxylic acid ethyl ester

>  <PUBCHEM_IUPAC_INCHI>  (21) 
InChI=1S/C22H23ClN2O2/c1-2-27-22(26)25-12-9-15(10-13-25)20-19-8-7-18(23)14-17(19)6-5-16-4-3-11-24-21(16)20/h3-4,7-8,11,14H,2,5-6,9-10,12-13H2,1H3

>  <PUBCHEM_IUPAC_INCHIKEY>  (21) 
JCCNYMKQOSZNPW-UHFFFAOYSA-N

>  <PUBCHEM_XLOGP3>  (21) 
5.2

>  <PUBCHEM_EXACT_MASS>  (21) 
382.1448057

>  <PUBCHEM_MOLECULAR_FORMULA>  (21) 
C22H23ClN2O2

>  <PUBCHEM_MOLECULAR_WEIGHT>  (21) 
382.9

>  <PUBCHEM_SMILES>  (21) 
CCOC(=O)N1CCC(=C2C3=C(CCC4=C2N=CC=C4)C=C(C=C3)Cl)CC1

>  <PUBCHEM_CONNECTIVITY_SMILES>  (21) 
CCOC(=O)N1CCC(=C2C3=C(CCC4=C2N=CC=C4)C=C(C=C3)Cl)CC1

>  <PUBCHEM_CACTVS_TPSA>  (21) 
42.4

>  <PUBCHEM_MONOISOTOPIC_WEIGHT>  (21) 
382.1448057

>  <PUBCHEM_TOTAL_CHARGE>  (21) 
0

>  <PUBCHEM_HEAVY_ATOM_COUNT>  (21) 
27

>  <PUBCHEM_ATOM_DEF_STEREO_COUNT>  (21) 
0

>  <PUBCHEM_ATOM_UDEF_STEREO_COUNT>  (21) 
0

>  <PUBCHEM_BOND_DEF_STEREO_COUNT>  (21) 
0

>  <PUBCHEM_BOND_UDEF_STEREO_COUNT>  (21) 
0

>  <PUBCHEM_ISOTOPIC_ATOM_COUNT>  (21) 
0

>  <PUBCHEM_COMPONENT_COUNT>  (21) 
1

>  <PUBCHEM_CACTVS_TAUTO_COUNT>  (21) 
-1

>  <PUBCHEM_COORDINATE_TYPE>  (21) 
1
5
255

>  <PUBCHEM_BONDANNOTATIONS>  (21) 
12  14  8
12  18  8
13  17  8
14  20  8
17  21  8
18  22  8
20  23  8
21  24  8
22  23  8
24  25  8
5  13  8
5  25  8

$$$$
3958
     RDKit          2D

 21 23  0  0  1  0  0  0  0  0999 V2000
    8.1647   -0.1360    0.0000 Cl  0  0  0  0  0  0  0  0  0  0  0  0
    6.6300    0.5528    0.0000 Cl  0  0  0  0  0  0  0  0  0  0  0  0
    2.3100   -1.1602    0.0000 O   0  0  0  0  0  0  0  0  0  0  0  0
    3.1204   -2.8430    0.0000 O   0  0  0  0  0  0  0  0  0  0  0  0
    4.7188   -2.2837    0.0000 N   0  0  0  0  0  0  0  0  0  0  0  0
    3.7439   -0.2592    0.0000 N   0  0  0  0  0  0  0  0  0  0  0  0
    5.5006   -0.6602    0.0000 C   0  0  0  0  0  0  0  0  0  0  0  0
    4.7188   -0.0367    0.0000 C   0  0  0  0  0  0  0  0  0  0  0  0
    5.5006   -1.6602    0.0000 C   0  0  0  0  0  0  0  0  0  0  0  0
    4.9413    0.9383    0.0000 C   0  0  0  0  0  0  0  0  0  0  0  0
    3.3100   -1.1602    0.0000 C   0  0  0  0  0  0  0  0  0  0  0  0
    6.3946   -0.1255    0.0000 C   0  0  0  0  0  0  0  0  0  0  0  0
    3.7439   -2.0611    0.0000 C   0  0  0  0  0  0  0  0  0  0  0  0
    6.3946   -2.1948    0.0000 C   0  0  0  0  0  0  0  0  0  0  0  0
    7.3007   -0.6393    0.0000 C   0  0  0  0  0  0  0  0  0  0  0  0
    7.3007   -1.6810    0.0000 C   0  0  0  0  0  0  0  0  0  0  0  0
    5.8969    1.2330    0.0000 C   0  0  0  0  0  0  0  0  0  0  0  0
    4.2083    1.6184    0.0000 C   0  0  0  0  0  0  0  0  0  0  0  0
    6.1194    2.2079    0.0000 C   0  0  0  0  0  0  0  0  0  0  0  0
    4.4308    2.5934    0.0000 C   0  0  0  0  0  0  0  0  0  0  0  0
    5.3864    2.8881    0.0000 C   0  0  0  0  0  0  0  0  0  0  0  0
  1 15  1  0
  2 17  1  0
  3 11  1  0
  4 13  2  0
  5  9  1  0
  5 13  1  0
  6  8  2  0
  6 11  1  0
  7  8  1  0
  7  9  2  0
  7 12  1  0
  8 10  1  0
  9 14  1  0
 10 17  2  0
 10 18  1  0
 11 13  1  0
 12 15  2  0
 14 16  2  0
 15 16  1  0
 17 19  1  0
 18 20  2  0
 19 21  2  0
 20 21  1  0
M  END
>  <PUBCHEM_COMPOUND_CID>  (22) 
3958

>  <PUBCHEM_COMPOUND_CANONICALIZED>  (22) 
1

>  <PUBCHEM_CACTVS_COMPLEXITY>  (22) 
443

>  <PUBCHEM_CACTVS_HBOND_ACCEPTOR>  (22) 
3

>  <PUBCHEM_CACTVS_HBOND_DONOR>  (22) 
2

>  <PUBCHEM_CACTVS_ROTATABLE_BOND>  (22) 
1

>  <PUBCHEM_CACTVS_SUBSKEYS>  (22) 
AAADccBzMAAGAAAAAAAAAAAAAAAAAAAAAAAwYAAABAAAAAABQAAAHgIQCAAADArhmCYwwILAAgCoAyVyVAKCAAAhBwAIiADgZpgKcKLBk5GUIAhglADYyAcQgMAOAABAIAADAAAAAIBAAAYAAAAAAAAAAA==

>  <PUBCHEM_IUPAC_OPENEYE_NAME>  (22) 
7-chloro-5-(2-chlorophenyl)-3-hydroxy-1,3-dihydro-1,4-benzodiazepin-2-one

>  <PUBCHEM_IUPAC_CAS_NAME>  (22) 
7-chloro-5-(2-chlorophenyl)-3-hydroxy-1,3-dihydro-1,4-benzodiazepin-2-one

>  <PUBCHEM_IUPAC_NAME_MARKUP>  (22) 
7-chloro-5-(2-chlorophenyl)-3-hydroxy-1,3-dihydro-1,4-benzodiazepin-2-one

>  <PUBCHEM_IUPAC_NAME>  (22) 
7-chloro-5-(2-chlorophenyl)-3-hydroxy-1,3-dihydro-1,4-benzodiazepin-2-one

>  <PUBCHEM_IUPAC_SYSTEMATIC_NAME>  (22) 
7-chloranyl-5-(2-chlorophenyl)-3-oxidanyl-1,3-dihydro-1,4-benzodiazepin-2-one

>  <PUBCHEM_IUPAC_TRADITIONAL_NAME>  (22) 
7-chloro-5-(2-chlorophenyl)-3-hydroxy-1,3-dihydro-1,4-benzodiazepin-2-one

>  <PUBCHEM_IUPAC_INCHI>  (22) 
InChI=1S/C15H10Cl2N2O2/c16-8-5-6-12-10(7-8)13(19-15(21)14(20)18-12)9-3-1-2-4-11(9)17/h1-7,15,21H,(H,18,20)

>  <PUBCHEM_IUPAC_INCHIKEY>  (22) 
DIWRORZWFLOCLC-UHFFFAOYSA-N

>  <PUBCHEM_XLOGP3>  (22) 
2.4

>  <PUBCHEM_EXACT_MASS>  (22) 
320.0119330

>  <PUBCHEM_MOLECULAR_FORMULA>  (22) 
C15H10Cl2N2O2

>  <PUBCHEM_MOLECULAR_WEIGHT>  (22) 
321.2

>  <PUBCHEM_SMILES>  (22) 
C1=CC=C(C(=C1)C2=NC(C(=O)NC3=C2C=C(C=C3)Cl)O)Cl

>  <PUBCHEM_CONNECTIVITY_SMILES>  (22) 
C1=CC=C(C(=C1)C2=NC(C(=O)NC3=C2C=C(C=C3)Cl)O)Cl

>  <PUBCHEM_CACTVS_TPSA>  (22) 
61.7

>  <PUBCHEM_MONOISOTOPIC_WEIGHT>  (22) 
320.0119330

>  <PUBCHEM_TOTAL_CHARGE>  (22) 
0

>  <PUBCHEM_HEAVY_ATOM_COUNT>  (22) 
21

>  <PUBCHEM_ATOM_DEF_STEREO_COUNT>  (22) 
0

>  <PUBCHEM_ATOM_UDEF_STEREO_COUNT>  (22) 
1

>  <PUBCHEM_BOND_DEF_STEREO_COUNT>  (22) 
0

>  <PUBCHEM_BOND_UDEF_STEREO_COUNT>  (22) 
0

>  <PUBCHEM_ISOTOPIC_ATOM_COUNT>  (22) 
0

>  <PUBCHEM_COMPONENT_COUNT>  (22) 
1

>  <PUBCHEM_CACTVS_TAUTO_COUNT>  (22) 
-1

>  <PUBCHEM_COORDINATE_TYPE>  (22) 
1
5
255

>  <PUBCHEM_BONDANNOTATIONS>  (22) 
10  17  8
10  18  8
12  15  8
14  16  8
15  16  8
17  19  8
18  20  8
19  21  8
20  21  8
11  3  3
7  12  8
7  9  8
9  14  8

$$$$
3961
     RDKit          2D

 30 33  0  0  0  0  0  0  0  0999 V2000
    2.0000    0.7625    0.0000 Cl  0  0  0  0  0  0  0  0  0  0  0  0
    2.5047    2.6883    0.0000 O   0  0  0  0  0  0  0  0  0  0  0  0
    4.5772    0.9944    0.0000 N   0  0  0  0  0  0  0  0  0  0  0  0
    3.4945   -0.2081    0.0000 N   0  0  0  0  0  0  0  0  0  0  0  0
    8.9643    1.5822    0.0000 N   0  0  0  0  0  0  0  0  0  0  0  0
   10.5824    1.5822    0.0000 N   0  0  0  0  0  0  0  0  0  0  0  0
    9.2734    2.5332    0.0000 N   0  0  0  0  0  0  0  0  0  0  0  0
   10.2734    2.5332    0.0000 N   0  0  0  0  0  0  0  0  0  0  0  0
    4.4727   -0.0002    0.0000 C   0  0  0  0  0  0  0  0  0  0  0  0
    5.2158   -0.6693    0.0000 C   0  0  0  0  0  0  0  0  0  0  0  0
    5.4432    1.4944    0.0000 C   0  0  0  0  0  0  0  0  0  0  0  0
    5.0079   -1.6474    0.0000 C   0  0  0  0  0  0  0  0  0  0  0  0
    3.6637    1.4011    0.0000 C   0  0  0  0  0  0  0  0  0  0  0  0
    6.3093    0.9944    0.0000 C   0  0  0  0  0  0  0  0  0  0  0  0
    5.7511   -2.3166    0.0000 C   0  0  0  0  0  0  0  0  0  0  0  0
    2.9945    0.6580    0.0000 C   0  0  0  0  0  0  0  0  0  0  0  0
    3.4557    2.3793    0.0000 C   0  0  0  0  0  0  0  0  0  0  0  0
    7.1753    1.4944    0.0000 C   0  0  0  0  0  0  0  0  0  0  0  0
    6.3093   -0.0056    0.0000 C   0  0  0  0  0  0  0  0  0  0  0  0
    8.0413   -0.0056    0.0000 C   0  0  0  0  0  0  0  0  0  0  0  0
    8.0413    0.9944    0.0000 C   0  0  0  0  0  0  0  0  0  0  0  0
    7.1753   -0.5056    0.0000 C   0  0  0  0  0  0  0  0  0  0  0  0
    5.5431   -3.2947    0.0000 C   0  0  0  0  0  0  0  0  0  0  0  0
    8.9073   -0.5056    0.0000 C   0  0  0  0  0  0  0  0  0  0  0  0
    9.7734   -0.0056    0.0000 C   0  0  0  0  0  0  0  0  0  0  0  0
    8.9073   -1.5056    0.0000 C   0  0  0  0  0  0  0  0  0  0  0  0
   10.6394   -0.5056    0.0000 C   0  0  0  0  0  0  0  0  0  0  0  0
    9.7734   -2.0056    0.0000 C   0  0  0  0  0  0  0  0  0  0  0  0
    9.7734    0.9944    0.0000 C   0  0  0  0  0  0  0  0  0  0  0  0
   10.6394   -1.5056    0.0000 C   0  0  0  0  0  0  0  0  0  0  0  0
  1 16  1  0
  2 17  1  0
  3  9  1  0
  3 11  1  0
  3 13  1  0
  4  9  2  0
  4 16  1  0
  5  7  1  0
  5 29  2  0
  6  8  2  0
  6 29  1  0
  7  8  1  0
  9 10  1  0
 10 12  1  0
 11 14  1  0
 12 15  1  0
 13 16  2  0
 13 17  1  0
 14 18  2  0
 14 19  1  0
 15 23  1  0
 18 21  1  0
 19 22  2  0
 20 21  2  0
 20 22  1  0
 20 24  1  0
 24 25  1  0
 24 26  2  0
 25 27  2  0
 25 29  1  0
 26 28  1  0
 27 30  1  0
 28 30  2  0
M  END
>  <PUBCHEM_COMPOUND_CID>  (23) 
3961

>  <PUBCHEM_COMPOUND_CANONICALIZED>  (23) 
1

>  <PUBCHEM_CACTVS_COMPLEXITY>  (23) 
520

>  <PUBCHEM_CACTVS_HBOND_ACCEPTOR>  (23) 
5

>  <PUBCHEM_CACTVS_HBOND_DONOR>  (23) 
2

>  <PUBCHEM_CACTVS_ROTATABLE_BOND>  (23) 
8

>  <PUBCHEM_CACTVS_SUBSKEYS>  (23) 
AAADceB7oAAEAAAAAAAAAAAAAAAAAWLAAAAwYAAAAAAAAAAB9AAAHgIYCAAADArhnyYzkJcOEgCiAyZiZASCgC8hFKAd+CA4XpiKfKLAmRHUYAhqgALYmCcQgMAOwAAAAAAQAACAAAAAACAAAAAAAAAAAA==

>  <PUBCHEM_IUPAC_OPENEYE_NAME>  (23) 
[2-butyl-5-chloro-3-[[4-[2-(2H-tetrazol-5-yl)phenyl]phenyl]methyl]imidazol-4-yl]methanol

>  <PUBCHEM_IUPAC_CAS_NAME>  (23) 
[2-butyl-5-chloro-3-[[4-[2-(2H-tetrazol-5-yl)phenyl]phenyl]methyl]-4-imidazolyl]methanol

>  <PUBCHEM_IUPAC_NAME_MARKUP>  (23) 
[2-butyl-5-chloro-3-[[4-[2-(2<I>H</I>-tetrazol-5-yl)phenyl]phenyl]methyl]imidazol-4-yl]methanol

>  <PUBCHEM_IUPAC_NAME>  (23) 
[2-butyl-5-chloro-3-[[4-[2-(2H-tetrazol-5-yl)phenyl]phenyl]methyl]imidazol-4-yl]methanol

>  <PUBCHEM_IUPAC_SYSTEMATIC_NAME>  (23) 
[2-butyl-5-chloranyl-3-[[4-[2-(2H-1,2,3,4-tetrazol-5-yl)phenyl]phenyl]methyl]imidazol-4-yl]methanol

>  <PUBCHEM_IUPAC_TRADITIONAL_NAME>  (23) 
[2-butyl-5-chloro-3-[4-[2-(2H-tetrazol-5-yl)phenyl]benzyl]imidazol-4-yl]methanol

>  <PUBCHEM_IUPAC_INCHI>  (23) 
InChI=1S/C22H23ClN6O/c1-2-3-8-20-24-21(23)19(14-30)29(20)13-15-9-11-16(12-10-15)17-6-4-5-7-18(17)22-25-27-28-26-22/h4-7,9-12,30H,2-3,8,13-14H2,1H3,(H,25,26,27,28)

>  <PUBCHEM_IUPAC_INCHIKEY>  (23) 
PSIFNNKUMBGKDQ-UHFFFAOYSA-N

>  <PUBCHEM_XLOGP3_AA>  (23) 
4.3

>  <PUBCHEM_EXACT_MASS>  (23) 
422.1621871

>  <PUBCHEM_MOLECULAR_FORMULA>  (23) 
C22H23ClN6O

>  <PUBCHEM_MOLECULAR_WEIGHT>  (23) 
422.9

>  <PUBCHEM_SMILES>  (23) 
CCCCC1=NC(=C(N1CC2=CC=C(C=C2)C3=CC=CC=C3C4=NNN=N4)CO)Cl

>  <PUBCHEM_CONNECTIVITY_SMILES>  (23) 
CCCCC1=NC(=C(N1CC2=CC=C(C=C2)C3=CC=CC=C3C4=NNN=N4)CO)Cl

>  <PUBCHEM_CACTVS_TPSA>  (23) 
92.5

>  <PUBCHEM_MONOISOTOPIC_WEIGHT>  (23) 
422.1621871

>  <PUBCHEM_TOTAL_CHARGE>  (23) 
0

>  <PUBCHEM_HEAVY_ATOM_COUNT>  (23) 
30

>  <PUBCHEM_ATOM_DEF_STEREO_COUNT>  (23) 
0

>  <PUBCHEM_ATOM_UDEF_STEREO_COUNT>  (23) 
0

>  <PUBCHEM_BOND_DEF_STEREO_COUNT>  (23) 
0

>  <PUBCHEM_BOND_UDEF_STEREO_COUNT>  (23) 
0

>  <PUBCHEM_ISOTOPIC_ATOM_COUNT>  (23) 
0

>  <PUBCHEM_COMPONENT_COUNT>  (23) 
1

>  <PUBCHEM_CACTVS_TAUTO_COUNT>  (23) 
-1

>  <PUBCHEM_COORDINATE_TYPE>  (23) 
1
5
255

>  <PUBCHEM_BONDANNOTATIONS>  (23) 
13  16  8
14  18  8
14  19  8
18  21  8
19  22  8
20  21  8
20  22  8
24  25  8
24  26  8
25  27  8
26  28  8
27  30  8
28  30  8
3  13  8
3  9  8
4  16  8
4  9  8
5  29  8
5  7  8
6  29  8
6  8  8
7  8  8

$$$$
4091
     RDKit          2D

 10  9  0  0  0  0  0  0  0  0999 V2000
    6.0010    0.4050    0.0000 N   0  0  0  0  0  0  0  0  0  0  0  0
    4.2690    0.4050    0.0000 N   0  0  0  0  0  0  0  0  0  0  0  0
    5.1350   -1.0950    0.0000 N   0  0  0  0  0  0  0  0  0  0  0  0
    2.5369    0.4050    0.0000 N   0  0  0  0  0  0  0  0  0  0  0  0
    3.4030   -1.0950    0.0000 N   0  0  0  0  0  0  0  0  0  0  0  0
    6.8671   -0.0950    0.0000 C   0  0  0  0  0  0  0  0  0  0  0  0
    6.0010    1.4050    0.0000 C   0  0  0  0  0  0  0  0  0  0  0  0
    5.1350   -0.0950    0.0000 C   0  0  0  0  0  0  0  0  0  0  0  0
    3.4030   -0.0950    0.0000 C   0  0  0  0  0  0  0  0  0  0  0  0
    5.6720   -1.4050    0.0000 H   0  0  0  0  0  0  0  0  0  0  0  0
  1  6  1  0
  1  7  1  0
  1  8  1  0
  2  8  1  0
  2  9  2  0
  3  8  2  0
  3 10  1  0
  4  9  1  0
  5  9  1  0
M  END
>  <PUBCHEM_COMPOUND_CID>  (24) 
4091

>  <PUBCHEM_COMPOUND_CANONICALIZED>  (24) 
1

>  <PUBCHEM_CACTVS_COMPLEXITY>  (24) 
132

>  <PUBCHEM_CACTVS_HBOND_ACCEPTOR>  (24) 
1

>  <PUBCHEM_CACTVS_HBOND_DONOR>  (24) 
3

>  <PUBCHEM_CACTVS_ROTATABLE_BOND>  (24) 
2

>  <PUBCHEM_CACTVS_SUBSKEYS>  (24) 
AAADccBjgAAAAAAAAAAAAAAAAAAAAAAAAAAAAAAAAAAAAAAAAAAAFAAQAAAAAAAAAAQDAANAAAAgAAAAJAAAAAGAAAABAAAIAACAAAAAAAAAAAAAAAAAAAAAAAAAAAAAAAAAAAAAAAAAAAAAAAAAAAAAAA==

>  <PUBCHEM_IUPAC_OPENEYE_NAME>  (24) 
3-(diaminomethylene)-1,1-dimethyl-guanidine

>  <PUBCHEM_IUPAC_CAS_NAME>  (24) 
3-(diaminomethylidene)-1,1-dimethylguanidine

>  <PUBCHEM_IUPAC_NAME_MARKUP>  (24) 
3-(diaminomethylidene)-1,1-dimethylguanidine

>  <PUBCHEM_IUPAC_NAME>  (24) 
3-(diaminomethylidene)-1,1-dimethylguanidine

>  <PUBCHEM_IUPAC_SYSTEMATIC_NAME>  (24) 
3-[bis(azanyl)methylidene]-1,1-dimethyl-guanidine

>  <PUBCHEM_IUPAC_TRADITIONAL_NAME>  (24) 
3-(diaminomethylene)-1,1-dimethyl-guanidine

>  <PUBCHEM_IUPAC_INCHI>  (24) 
InChI=1S/C4H11N5/c1-9(2)4(7)8-3(5)6/h1-2H3,(H5,5,6,7,8)

>  <PUBCHEM_IUPAC_INCHIKEY>  (24) 
XZWYZXLIPXDOLR-UHFFFAOYSA-N

>  <PUBCHEM_XLOGP3_AA>  (24) 
-1.3

>  <PUBCHEM_EXACT_MASS>  (24) 
129.10144537

>  <PUBCHEM_MOLECULAR_FORMULA>  (24) 
C4H11N5

>  <PUBCHEM_MOLECULAR_WEIGHT>  (24) 
129.16

>  <PUBCHEM_SMILES>  (24) 
CN(C)C(=N)N=C(N)N

>  <PUBCHEM_CONNECTIVITY_SMILES>  (24) 
CN(C)C(=N)N=C(N)N

>  <PUBCHEM_CACTVS_TPSA>  (24) 
91.5

>  <PUBCHEM_MONOISOTOPIC_WEIGHT>  (24) 
129.10144537

>  <PUBCHEM_TOTAL_CHARGE>  (24) 
0

>  <PUBCHEM_HEAVY_ATOM_COUNT>  (24) 
9

>  <PUBCHEM_ATOM_DEF_STEREO_COUNT>  (24) 
0

>  <PUBCHEM_ATOM_UDEF_STEREO_COUNT>  (24) 
0

>  <PUBCHEM_BOND_DEF_STEREO_COUNT>  (24) 
0

>  <PUBCHEM_BOND_UDEF_STEREO_COUNT>  (24) 
0

>  <PUBCHEM_ISOTOPIC_ATOM_COUNT>  (24) 
0

>  <PUBCHEM_COMPONENT_COUNT>  (24) 
1

>  <PUBCHEM_CACTVS_TAUTO_COUNT>  (24) 
-1

>  <PUBCHEM_COORDINATE_TYPE>  (24) 
1
5
255

>  <PUBCHEM_BONDANNOTATIONS>  (24) 
2  8  1

$$$$
4171
     RDKit          2D

 19 19  0  0  1  0  0  0  0  0999 V2000
    3.7321    0.7500    0.0000 O   0  0  0  0  0  0  0  0  0  0  0  0
    3.7321    2.7500    0.0000 O   0  0  0  0  0  0  0  0  0  0  0  0
    2.8660   -4.7500    0.0000 O   0  0  0  0  0  0  0  0  0  0  0  0
    5.4641    3.7500    0.0000 N   0  0  0  0  0  0  0  0  0  0  0  0
    4.5981    2.2500    0.0000 C   0  0  0  0  0  0  0  0  0  0  0  0
    5.4641    2.7500    0.0000 C   0  0  0  0  0  0  0  0  0  0  0  0
    6.3301    4.2500    0.0000 C   0  0  0  0  0  0  0  0  0  0  0  0
    4.5981    1.2500    0.0000 C   0  0  0  0  0  0  0  0  0  0  0  0
    6.3301    5.2500    0.0000 C   0  0  0  0  0  0  0  0  0  0  0  0
    7.1962    3.7500    0.0000 C   0  0  0  0  0  0  0  0  0  0  0  0
    3.7321   -0.2500    0.0000 C   0  0  0  0  0  0  0  0  0  0  0  0
    3.7321   -2.2500    0.0000 C   0  0  0  0  0  0  0  0  0  0  0  0
    3.7321   -3.2500    0.0000 C   0  0  0  0  0  0  0  0  0  0  0  0
    2.8660   -0.7500    0.0000 C   0  0  0  0  0  0  0  0  0  0  0  0
    4.5981   -0.7500    0.0000 C   0  0  0  0  0  0  0  0  0  0  0  0
    2.8660   -1.7500    0.0000 C   0  0  0  0  0  0  0  0  0  0  0  0
    4.5981   -1.7500    0.0000 C   0  0  0  0  0  0  0  0  0  0  0  0
    2.8660   -3.7500    0.0000 C   0  0  0  0  0  0  0  0  0  0  0  0
    2.0000   -5.2500    0.0000 C   0  0  0  0  0  0  0  0  0  0  0  0
  1  8  1  0
  1 11  1  0
  2  5  1  0
  3 18  1  0
  3 19  1  0
  4  6  1  0
  4  7  1  0
  5  6  1  0
  5  8  1  0
  7  9  1  0
  7 10  1  0
 11 14  2  0
 11 15  1  0
 12 13  1  0
 12 16  2  0
 12 17  1  0
 13 18  1  0
 14 16  1  0
 15 17  2  0
M  END
>  <PUBCHEM_COMPOUND_CID>  (25) 
4171

>  <PUBCHEM_COMPOUND_CANONICALIZED>  (25) 
1

>  <PUBCHEM_CACTVS_COMPLEXITY>  (25) 
215

>  <PUBCHEM_CACTVS_HBOND_ACCEPTOR>  (25) 
4

>  <PUBCHEM_CACTVS_HBOND_DONOR>  (25) 
2

>  <PUBCHEM_CACTVS_ROTATABLE_BOND>  (25) 
9

>  <PUBCHEM_CACTVS_SUBSKEYS>  (25) 
AAADceByMAAAAAAAAAAAAAAAAAAAAAAAAAAwAAAAAAAAAAABAAAAHgAQCAAADDzhmAYyBoLABgCAAiBCAAACCAAgIAAIiIAOCIgPNiKEMRqGOCCm0BGbqAeAwKAOIAAAAAAAAABAAAAAAAAAAAAAAAAAAA==

>  <PUBCHEM_IUPAC_OPENEYE_NAME>  (25) 
1-(isopropylamino)-3-[4-(2-methoxyethyl)phenoxy]propan-2-ol

>  <PUBCHEM_IUPAC_CAS_NAME>  (25) 
1-[4-(2-methoxyethyl)phenoxy]-3-(propan-2-ylamino)-2-propanol

>  <PUBCHEM_IUPAC_NAME_MARKUP>  (25) 
1-[4-(2-methoxyethyl)phenoxy]-3-(propan-2-ylamino)propan-2-ol

>  <PUBCHEM_IUPAC_NAME>  (25) 
1-[4-(2-methoxyethyl)phenoxy]-3-(propan-2-ylamino)propan-2-ol

>  <PUBCHEM_IUPAC_SYSTEMATIC_NAME>  (25) 
1-[4-(2-methoxyethyl)phenoxy]-3-(propan-2-ylamino)propan-2-ol

>  <PUBCHEM_IUPAC_TRADITIONAL_NAME>  (25) 
1-(isopropylamino)-3-[4-(2-methoxyethyl)phenoxy]propan-2-ol

>  <PUBCHEM_IUPAC_INCHI>  (25) 
InChI=1S/C15H25NO3/c1-12(2)16-10-14(17)11-19-15-6-4-13(5-7-15)8-9-18-3/h4-7,12,14,16-17H,8-11H2,1-3H3

>  <PUBCHEM_IUPAC_INCHIKEY>  (25) 
IUBSYMUCCVWXPE-UHFFFAOYSA-N

>  <PUBCHEM_XLOGP3>  (25) 
1.9

>  <PUBCHEM_EXACT_MASS>  (25) 
267.18344366

>  <PUBCHEM_MOLECULAR_FORMULA>  (25) 
C15H25NO3

>  <PUBCHEM_MOLECULAR_WEIGHT>  (25) 
267.36

>  <PUBCHEM_SMILES>  (25) 
CC(C)NCC(COC1=CC=C(C=C1)CCOC)O

>  <PUBCHEM_CONNECTIVITY_SMILES>  (25) 
CC(C)NCC(COC1=CC=C(C=C1)CCOC)O

>  <PUBCHEM_CACTVS_TPSA>  (25) 
50.7

>  <PUBCHEM_MONOISOTOPIC_WEIGHT>  (25) 
267.18344366

>  <PUBCHEM_TOTAL_CHARGE>  (25) 
0

>  <PUBCHEM_HEAVY_ATOM_COUNT>  (25) 
19

>  <PUBCHEM_ATOM_DEF_STEREO_COUNT>  (25) 
0

>  <PUBCHEM_ATOM_UDEF_STEREO_COUNT>  (25) 
1

>  <PUBCHEM_BOND_DEF_STEREO_COUNT>  (25) 
0

>  <PUBCHEM_BOND_UDEF_STEREO_COUNT>  (25) 
0

>  <PUBCHEM_ISOTOPIC_ATOM_COUNT>  (25) 
0

>  <PUBCHEM_COMPONENT_COUNT>  (25) 
1

>  <PUBCHEM_CACTVS_TAUTO_COUNT>  (25) 
-1

>  <PUBCHEM_COORDINATE_TYPE>  (25) 
1
5
255

>  <PUBCHEM_BONDANNOTATIONS>  (25) 
11  14  8
11  15  8
12  16  8
12  17  8
14  16  8
15  17  8
5  2  3

$$$$
444036
     RDKit          2D

 34 37  0  0  1  0  0  0  0  0999 V2000
   10.0622    1.0652    0.0000 S   0  0  0  0  0  0  0  0  0  0  0  0
    5.0183    0.3484    0.0000 F   0  0  0  0  0  0  0  0  0  0  0  0
    5.6489   -3.4869    0.0000 F   0  0  0  0  0  0  0  0  0  0  0  0
   11.7851    1.2432    0.0000 F   0  0  0  0  0  0  0  0  0  0  0  0
    8.0319    1.8387    0.0000 O   0  0  0  0  0  0  0  0  0  0  0  0
    4.7950    1.0824    0.0000 O   0  0  0  0  0  0  0  0  0  0  0  0
    9.5577    2.3863    0.0000 O   0  0  0  0  0  0  0  0  0  0  0  0
    9.1931    3.1238    0.0000 O   0  0  0  0  0  0  0  0  0  0  0  0
    2.0000   -2.4700    0.0000 O   0  0  0  0  0  0  0  0  0  0  0  0
    7.3931    0.5824    0.0000 C   0  0  0  0  0  0  0  0  0  0  0  0
    7.3931   -0.4176    0.0000 C   0  0  0  0  0  0  0  0  0  0  0  0
    6.5271   -0.9176    0.0000 C   0  0  0  0  0  0  0  0  0  0  0  0
    5.6610   -0.4176    0.0000 C   0  0  0  0  0  0  0  0  0  0  0  0
    8.3393    0.8871    0.0000 C   0  0  0  0  0  0  0  0  0  0  0  0
    8.3393   -0.7224    0.0000 C   0  0  0  0  0  0  0  0  0  0  0  0
    6.5271    1.0824    0.0000 C   0  0  0  0  0  0  0  0  0  0  0  0
    8.9229    0.0824    0.0000 C   0  0  0  0  0  0  0  0  0  0  0  0
    5.6610    0.5824    0.0000 C   0  0  0  0  0  0  0  0  0  0  0  0
    4.7510   -0.9245    0.0000 C   0  0  0  0  0  0  0  0  0  0  0  0
    6.5431   -1.9591    0.0000 C   0  0  0  0  0  0  0  0  0  0  0  0
    7.3931    1.5824    0.0000 C   0  0  0  0  0  0  0  0  0  0  0  0
    5.6451   -2.4869    0.0000 C   0  0  0  0  0  0  0  0  0  0  0  0
    4.7430   -1.9661    0.0000 C   0  0  0  0  0  0  0  0  0  0  0  0
    9.9229    0.0824    0.0000 C   0  0  0  0  0  0  0  0  0  0  0  0
    9.1493    1.4735    0.0000 C   0  0  0  0  0  0  0  0  0  0  0  0
    4.4163    0.0178    0.0000 C   0  0  0  0  0  0  0  0  0  0  0  0
    3.8242   -0.3604    0.0000 C   0  0  0  0  0  0  0  0  0  0  0  0
    3.8076   -2.5158    0.0000 C   0  0  0  0  0  0  0  0  0  0  0  0
    2.8763   -0.8883    0.0000 C   0  0  0  0  0  0  0  0  0  0  0  0
    8.2415    2.8165    0.0000 C   0  0  0  0  0  0  0  0  0  0  0  0
    2.8680   -1.9733    0.0000 C   0  0  0  0  0  0  0  0  0  0  0  0
    7.4996    3.4869    0.0000 C   0  0  0  0  0  0  0  0  0  0  0  0
   10.8722    1.6516    0.0000 C   0  0  0  0  0  0  0  0  0  0  0  0
    6.5480    3.1795    0.0000 C   0  0  0  0  0  0  0  0  0  0  0  0
  1 25  1  0
  1 33  1  0
 13  2  1  6
 22  3  1  6
  4 33  1  0
 14  5  1  6
  5 30  1  0
 18  6  1  1
  7 25  2  0
  8 30  2  0
  9 31  2  0
 10 11  1  0
 10 14  1  0
 10 16  1  0
 10 21  1  1
 11 12  1  0
 11 15  1  1
 12 13  1  0
 12 20  1  6
 13 18  1  0
 13 19  1  0
 14 17  1  0
 14 25  1  0
 15 17  1  0
 16 18  1  0
 17 24  1  6
 19 23  1  0
 19 26  1  1
 19 27  1  0
 20 22  1  0
 22 23  1  0
 23 28  2  0
 27 29  2  0
 28 31  1  0
 29 31  1  0
 30 32  1  0
 32 34  1  0
M  END
>  <PUBCHEM_COMPOUND_CID>  (26) 
444036

>  <PUBCHEM_COMPOUND_CANONICALIZED>  (26) 
1

>  <PUBCHEM_CACTVS_COMPLEXITY>  (26) 
984

>  <PUBCHEM_CACTVS_HBOND_ACCEPTOR>  (26) 
9

>  <PUBCHEM_CACTVS_HBOND_DONOR>  (26) 
1

>  <PUBCHEM_CACTVS_ROTATABLE_BOND>  (26) 
6

>  <PUBCHEM_CACTVS_SUBSKEYS>  (26) 
AAADceB4OYBAAAAAAAAAAAAAAAAAAYAAAAAwYIAAAAAAAGDAAAAAGwQACAAAD1SgwAKCCAAABgiIAqDSCAIAAAAgABAICAFAAEgAEBIgAQQCQAAEgAAIAYPIzPDPgAAAAAAAAADAAAYAADAAAYAADAAAAA==

>  <PUBCHEM_IUPAC_OPENEYE_NAME>  (26) 
[(6S,8S,9R,10S,11S,13S,14S,16R,17R)-6,9-difluoro-17-(fluoromethylsulfanylcarbonyl)-11-hydroxy-10,13,16-trimethyl-3-oxo-6,7,8,11,12,14,15,16-octahydrocyclopenta[a]phenanthren-17-yl] propanoate

>  <PUBCHEM_IUPAC_CAS_NAME>  (26) 
propanoic acid [(6S,8S,9R,10S,11S,13S,14S,16R,17R)-6,9-difluoro-17-[(fluoromethylthio)-oxomethyl]-11-hydroxy-10,13,16-trimethyl-3-oxo-6,7,8,11,12,14,15,16-octahydrocyclopenta[a]phenanthren-17-yl] ester

>  <PUBCHEM_IUPAC_NAME_MARKUP>  (26) 
[(6<I>S</I>,8<I>S</I>,9<I>R</I>,10<I>S</I>,11<I>S</I>,13<I>S</I>,14<I>S</I>,16<I>R</I>,17<I>R</I>)-6,9-difluoro-17-(fluoromethylsulfanylcarbonyl)-11-hydroxy-10,13,16-trimethyl-3-oxo-6,7,8,11,12,14,15,16-octahydrocyclopenta[a]phenanthren-17-yl] propanoate

>  <PUBCHEM_IUPAC_NAME>  (26) 
[(6S,8S,9R,10S,11S,13S,14S,16R,17R)-6,9-difluoro-17-(fluoromethylsulfanylcarbonyl)-11-hydroxy-10,13,16-trimethyl-3-oxo-6,7,8,11,12,14,15,16-octahydrocyclopenta[a]phenanthren-17-yl] propanoate

>  <PUBCHEM_IUPAC_SYSTEMATIC_NAME>  (26) 
[(6S,8S,9R,10S,11S,13S,14S,16R,17R)-6,9-bis(fluoranyl)-17-(fluoranylmethylsulfanylcarbonyl)-10,13,16-trimethyl-11-oxidanyl-3-oxidanylidene-6,7,8,11,12,14,15,16-octahydrocyclopenta[a]phenanthren-17-yl] propanoate

>  <PUBCHEM_IUPAC_TRADITIONAL_NAME>  (26) 
propionic acid [(6S,8S,9R,10S,11S,13S,14S,16R,17R)-6,9-difluoro-17-(fluoromethylthio)carbonyl-11-hydroxy-3-keto-10,13,16-trimethyl-6,7,8,11,12,14,15,16-octahydrocyclopenta[a]phenanthren-17-yl] ester

>  <PUBCHEM_IUPAC_INCHI>  (26) 
InChI=1S/C25H31F3O5S/c1-5-20(31)33-25(21(32)34-12-26)13(2)8-15-16-10-18(27)17-9-14(29)6-7-22(17,3)24(16,28)19(30)11-23(15,25)4/h6-7,9,13,15-16,18-19,30H,5,8,10-12H2,1-4H3/t13-,15+,16+,18+,19+,22+,23+,24+,25+/m1/s1

>  <PUBCHEM_IUPAC_INCHIKEY>  (26) 
WMWTYOKRWGGJOA-CENSZEJFSA-N

>  <PUBCHEM_XLOGP3>  (26) 
4

>  <PUBCHEM_EXACT_MASS>  (26) 
500.18442974

>  <PUBCHEM_MOLECULAR_FORMULA>  (26) 
C25H31F3O5S

>  <PUBCHEM_MOLECULAR_WEIGHT>  (26) 
500.6

>  <PUBCHEM_SMILES>  (26) 
CCC(=O)O[C@@]1([C@@H](C[C@@H]2[C@@]1(C[C@@H]([C@]3([C@H]2C[C@@H](C4=CC(=O)C=C[C@@]43C)F)F)O)C)C)C(=O)SCF

>  <PUBCHEM_CONNECTIVITY_SMILES>  (26) 
CCC(=O)OC1(C(CC2C1(CC(C3(C2CC(C4=CC(=O)C=CC43C)F)F)O)C)C)C(=O)SCF

>  <PUBCHEM_CACTVS_TPSA>  (26) 
106

>  <PUBCHEM_MONOISOTOPIC_WEIGHT>  (26) 
500.18442974

>  <PUBCHEM_TOTAL_CHARGE>  (26) 
0

>  <PUBCHEM_HEAVY_ATOM_COUNT>  (26) 
34

>  <PUBCHEM_ATOM_DEF_STEREO_COUNT>  (26) 
9

>  <PUBCHEM_ATOM_UDEF_STEREO_COUNT>  (26) 
0

>  <PUBCHEM_BOND_DEF_STEREO_COUNT>  (26) 
0

>  <PUBCHEM_BOND_UDEF_STEREO_COUNT>  (26) 
0

>  <PUBCHEM_ISOTOPIC_ATOM_COUNT>  (26) 
0

>  <PUBCHEM_COMPONENT_COUNT>  (26) 
1

>  <PUBCHEM_CACTVS_TAUTO_COUNT>  (26) 
-1

>  <PUBCHEM_COORDINATE_TYPE>  (26) 
1
5
255

>  <PUBCHEM_BONDANNOTATIONS>  (26) 
10  21  5
11  35  6
12  36  5
17  24  6
19  26  5
13  2  6
22  3  6
14  5  6
18  6  5

$$$$
447043
     RDKit          2D

 52 54  0  0  1  0  0  0  0  0999 V2000
    7.5612   -1.6208    0.0000 O   0  0  0  0  0  0  0  0  0  0  0  0
    5.9331    0.6200    0.0000 O   0  0  0  0  0  0  0  0  0  0  0  0
    8.6539   -1.9974    0.0000 O   0  0  0  0  0  0  0  0  0  0  0  0
    5.8291   -1.6208    0.0000 O   0  0  0  0  0  0  0  0  0  0  0  0
    4.7742    1.9071    0.0000 O   0  0  0  0  0  0  0  0  0  0  0  0
    8.0612    3.4106    0.0000 O   0  0  0  0  0  0  0  0  0  0  0  0
    2.3097    0.3610    0.0000 O   0  0  0  0  0  0  0  0  0  0  0  0
    7.5612   -3.6208    0.0000 O   0  0  0  0  0  0  0  0  0  0  0  0
    2.1289    1.8560    0.0000 O   0  0  0  0  0  0  0  0  0  0  0  0
   10.0591    4.6137    0.0000 O   0  0  0  0  0  0  0  0  0  0  0  0
   11.5419    3.8582    0.0000 O   0  0  0  0  0  0  0  0  0  0  0  0
    6.5090    3.3292    0.0000 O   0  0  0  0  0  0  0  0  0  0  0  0
   11.6685    1.3279    0.0000 N   0  0  0  0  0  0  0  0  0  0  0  0
    5.8291   -4.6208    0.0000 N   0  0  0  0  0  0  0  0  0  0  0  0
    8.0612   -0.7548    0.0000 C   0  0  0  0  0  0  0  0  0  0  0  0
    7.3180   -0.0857    0.0000 C   0  0  0  0  0  0  0  0  0  0  0  0
    9.0122   -1.0638    0.0000 C   0  0  0  0  0  0  0  0  0  0  0  0
    6.9113    0.8279    0.0000 C   0  0  0  0  0  0  0  0  0  0  0  0
   10.0067   -0.9593    0.0000 C   0  0  0  0  0  0  0  0  0  0  0  0
   10.8728   -0.4593    0.0000 C   0  0  0  0  0  0  0  0  0  0  0  0
    6.9113    1.8279    0.0000 C   0  0  0  0  0  0  0  0  0  0  0  0
    6.6951   -2.1208    0.0000 C   0  0  0  0  0  0  0  0  0  0  0  0
    6.5090   -0.6735    0.0000 C   0  0  0  0  0  0  0  0  0  0  0  0
    4.9821    0.9290    0.0000 C   0  0  0  0  0  0  0  0  0  0  0  0
    9.6415   -1.8410    0.0000 C   0  0  0  0  0  0  0  0  0  0  0  0
    3.2879    0.5689    0.0000 C   0  0  0  0  0  0  0  0  0  0  0  0
    6.6951   -3.1208    0.0000 C   0  0  0  0  0  0  0  0  0  0  0  0
   11.4605    0.3497    0.0000 C   0  0  0  0  0  0  0  0  0  0  0  0
    5.8291   -3.6208    0.0000 C   0  0  0  0  0  0  0  0  0  0  0  0
    4.2389    0.2599    0.0000 C   0  0  0  0  0  0  0  0  0  0  0  0
    3.0800    1.5470    0.0000 C   0  0  0  0  0  0  0  0  0  0  0  0
   11.4605    2.3060    0.0000 C   0  0  0  0  0  0  0  0  0  0  0  0
   10.0067    3.6150    0.0000 C   0  0  0  0  0  0  0  0  0  0  0  0
    4.9631   -3.1208    0.0000 C   0  0  0  0  0  0  0  0  0  0  0  0
   10.8728    3.1150    0.0000 C   0  0  0  0  0  0  0  0  0  0  0  0
    3.8231    2.2161    0.0000 C   0  0  0  0  0  0  0  0  0  0  0  0
    4.9631   -2.1208    0.0000 C   0  0  0  0  0  0  0  0  0  0  0  0
    9.0122    3.7196    0.0000 C   0  0  0  0  0  0  0  0  0  0  0  0
   11.5419   -1.2024    0.0000 C   0  0  0  0  0  0  0  0  0  0  0  0
    7.3180    2.7414    0.0000 C   0  0  0  0  0  0  0  0  0  0  0  0
    5.9331    2.0358    0.0000 C   0  0  0  0  0  0  0  0  0  0  0  0
    2.9789   -0.3822    0.0000 C   0  0  0  0  0  0  0  0  0  0  0  0
   12.3741    2.7128    0.0000 C   0  0  0  0  0  0  0  0  0  0  0  0
   10.8054    4.2169    0.0000 C   0  0  0  0  0  0  0  0  0  0  0  0
    8.9077    4.7141    0.0000 C   0  0  0  0  0  0  0  0  0  0  0  0
   12.6685    1.3279    0.0000 C   0  0  0  0  0  0  0  0  0  0  0  0
    3.6152    3.1943    0.0000 C   0  0  0  0  0  0  0  0  0  0  0  0
    4.0971   -1.6208    0.0000 C   0  0  0  0  0  0  0  0  0  0  0  0
    4.9631   -5.1208    0.0000 C   0  0  0  0  0  0  0  0  0  0  0  0
    6.6951   -5.1208    0.0000 C   0  0  0  0  0  0  0  0  0  0  0  0
    7.9941    5.1208    0.0000 C   0  0  0  0  0  0  0  0  0  0  0  0
    2.0007   -0.5900    0.0000 C   0  0  0  0  0  0  0  0  0  0  0  0
 15  1  1  6
 22  1  1  1
 18  2  1  6
 24  2  1  1
 17  3  1  0
  4 22  1  0
  4 37  1  0
  5 24  1  0
  5 36  1  0
  6 38  1  0
  6 40  1  0
 26  7  1  0
  7 52  1  0
 27  8  1  6
 31  9  1  1
 33 10  1  0
 35 11  1  6
 12 40  2  0
 13 28  1  0
 13 32  1  0
 13 46  1  0
 29 14  1  1
 14 49  1  0
 14 50  1  0
 15 16  1  0
 15 17  1  0
 16 18  1  0
 16 23  1  1
 17 19  1  0
 17 25  1  6
 18 21  1  0
 19 20  1  0
 20 28  1  0
 20 39  1  6
 21 40  1  0
 21 41  1  1
 22 27  1  0
 24 30  1  0
 26 30  1  0
 26 31  1  0
 26 42  1  6
 27 29  1  0
 29 34  1  0
 31 36  1  0
 32 35  1  0
 32 43  1  1
 33 35  1  0
 33 38  1  0
 33 44  1  6
 34 37  1  0
 36 47  1  6
 37 48  1  1
 38 45  1  6
 45 51  1  0
M  END
>  <PUBCHEM_COMPOUND_CID>  (27) 
447043

>  <PUBCHEM_COMPOUND_CANONICALIZED>  (27) 
1

>  <PUBCHEM_CACTVS_COMPLEXITY>  (27) 
1150

>  <PUBCHEM_CACTVS_HBOND_ACCEPTOR>  (27) 
14

>  <PUBCHEM_CACTVS_HBOND_DONOR>  (27) 
5

>  <PUBCHEM_CACTVS_ROTATABLE_BOND>  (27) 
7

>  <PUBCHEM_CACTVS_SUBSKEYS>  (27) 
AAADcfB/PAAAAAAAAAAAAAAAAAAAAAAAAAAkSAAAAAAAAAAAAAAAHgAACAAADXzxgAcCCAMABgAIAACQCAAAAAAAAAAAAAEIAAATEBYAgAAmQAAHIACXAAH4/P7OAAAAAAAAAAAAAAAAAAAAAAAAAAAAAA==

>  <PUBCHEM_IUPAC_OPENEYE_NAME>  (27) 
(2R,3S,4R,5R,8R,10R,11R,12S,13S,14R)-11-[(2S,3R,4S,6R)-4-(dimethylamino)-3-hydroxy-6-methyl-tetrahydropyran-2-yl]oxy-2-ethyl-3,4,10-trihydroxy-13-[(2R,4R,5S,6S)-5-hydroxy-4-methoxy-4,6-dimethyl-tetrahydropyran-2-yl]oxy-3,5,6,8,10,12,14-heptamethyl-1-oxa-6-azacyclopentadecan-15-one

>  <PUBCHEM_IUPAC_CAS_NAME>  (27) 
(2R,3S,4R,5R,8R,10R,11R,12S,13S,14R)-11-[[(2S,3R,4S,6R)-4-(dimethylamino)-3-hydroxy-6-methyl-2-oxanyl]oxy]-2-ethyl-3,4,10-trihydroxy-13-[[(2R,4R,5S,6S)-5-hydroxy-4-methoxy-4,6-dimethyl-2-oxanyl]oxy]-3,5,6,8,10,12,14-heptamethyl-1-oxa-6-azacyclopentadecan-15-one

>  <PUBCHEM_IUPAC_NAME_MARKUP>  (27) 
(2<I>R</I>,3<I>S</I>,4<I>R</I>,5<I>R</I>,8<I>R</I>,10<I>R</I>,11<I>R</I>,12<I>S</I>,13<I>S</I>,14<I>R</I>)-11-[(2<I>S</I>,3<I>R</I>,4<I>S</I>,6<I>R</I>)-4-(dimethylamino)-3-hydroxy-6-methyloxan-2-yl]oxy-2-ethyl-3,4,10-trihydroxy-13-[(2<I>R</I>,4<I>R</I>,5<I>S</I>,6<I>S</I>)-5-hydroxy-4-methoxy-4,6-dimethyloxan-2-yl]oxy-3,5,6,8,10,12,14-heptamethyl-1-oxa-6-azacyclopentadecan-15-one

>  <PUBCHEM_IUPAC_NAME>  (27) 
(2R,3S,4R,5R,8R,10R,11R,12S,13S,14R)-11-[(2S,3R,4S,6R)-4-(dimethylamino)-3-hydroxy-6-methyloxan-2-yl]oxy-2-ethyl-3,4,10-trihydroxy-13-[(2R,4R,5S,6S)-5-hydroxy-4-methoxy-4,6-dimethyloxan-2-yl]oxy-3,5,6,8,10,12,14-heptamethyl-1-oxa-6-azacyclopentadecan-15-one

>  <PUBCHEM_IUPAC_SYSTEMATIC_NAME>  (27) 
(2R,3S,4R,5R,8R,10R,11R,12S,13S,14R)-11-[(2S,3R,4S,6R)-4-(dimethylamino)-6-methyl-3-oxidanyl-oxan-2-yl]oxy-2-ethyl-13-[(2R,4R,5S,6S)-4-methoxy-4,6-dimethyl-5-oxidanyl-oxan-2-yl]oxy-3,5,6,8,10,12,14-heptamethyl-3,4,10-tris(oxidanyl)-1-oxa-6-azacyclopentadecan-15-one

>  <PUBCHEM_IUPAC_TRADITIONAL_NAME>  (27) 
(2R,3S,4R,5R,8R,10R,11R,12S,13S,14R)-11-[(2S,3R,4S,6R)-4-(dimethylamino)-3-hydroxy-6-methyl-tetrahydropyran-2-yl]oxy-2-ethyl-3,4,10-trihydroxy-13-[(2R,4R,5S,6S)-5-hydroxy-4-methoxy-4,6-dimethyl-tetrahydropyran-2-yl]oxy-3,5,6,8,10,12,14-heptamethyl-1-oxa-6-azacyclopentadecan-15-one

>  <PUBCHEM_IUPAC_INCHI>  (27) 
InChI=1S/C38H72N2O12/c1-15-27-38(10,46)31(42)24(6)40(13)19-20(2)17-36(8,45)33(52-35-29(41)26(39(11)12)16-21(3)48-35)22(4)30(23(5)34(44)50-27)51-28-18-37(9,47-14)32(43)25(7)49-28/h20-33,35,41-43,45-46H,15-19H2,1-14H3/t20-,21-,22+,23-,24-,25+,26+,27-,28+,29-,30+,31-,32+,33-,35+,36-,37-,38-/m1/s1

>  <PUBCHEM_IUPAC_INCHIKEY>  (27) 
MQTOSJVFKKJCRP-BICOPXKESA-N

>  <PUBCHEM_XLOGP3>  (27) 
4

>  <PUBCHEM_EXACT_MASS>  (27) 
748.50852574

>  <PUBCHEM_MOLECULAR_FORMULA>  (27) 
C38H72N2O12

>  <PUBCHEM_MOLECULAR_WEIGHT>  (27) 
749.0

>  <PUBCHEM_SMILES>  (27) 
CC[C@@H]1[C@@]([C@@H]([C@H](N(C[C@@H](C[C@@]([C@@H]([C@H]([C@@H]([C@H](C(=O)O1)C)O[C@H]2C[C@@]([C@H]([C@@H](O2)C)O)(C)OC)C)O[C@H]3[C@@H]([C@H](C[C@H](O3)C)N(C)C)O)(C)O)C)C)C)O)(C)O

>  <PUBCHEM_CONNECTIVITY_SMILES>  (27) 
CCC1C(C(C(N(CC(CC(C(C(C(C(C(=O)O1)C)OC2CC(C(C(O2)C)O)(C)OC)C)OC3C(C(CC(O3)C)N(C)C)O)(C)O)C)C)C)O)(C)O

>  <PUBCHEM_CACTVS_TPSA>  (27) 
180

>  <PUBCHEM_MONOISOTOPIC_WEIGHT>  (27) 
748.50852574

>  <PUBCHEM_TOTAL_CHARGE>  (27) 
0

>  <PUBCHEM_HEAVY_ATOM_COUNT>  (27) 
52

>  <PUBCHEM_ATOM_DEF_STEREO_COUNT>  (27) 
18

>  <PUBCHEM_ATOM_UDEF_STEREO_COUNT>  (27) 
0

>  <PUBCHEM_BOND_DEF_STEREO_COUNT>  (27) 
0

>  <PUBCHEM_BOND_UDEF_STEREO_COUNT>  (27) 
0

>  <PUBCHEM_ISOTOPIC_ATOM_COUNT>  (27) 
0

>  <PUBCHEM_COMPONENT_COUNT>  (27) 
1

>  <PUBCHEM_CACTVS_TAUTO_COUNT>  (27) 
-1

>  <PUBCHEM_COORDINATE_TYPE>  (27) 
1
5
255

>  <PUBCHEM_BONDANNOTATIONS>  (27) 
15  1  6
22  1  5
33  10  5
35  11  6
29  14  5
16  23  5
18  2  6
24  2  5
20  39  6
21  41  5
17  3  5
32  43  5
36  47  6
37  48  5
38  45  6
26  7  5
27  8  6
31  9  5

$$$$
4485
     RDKit          2D

 25 26  0  0  0  0  0  0  0  0999 V2000
    8.0622   -0.6900    0.0000 O   0  0  0  0  0  0  0  0  0  0  0  0
    2.8660   -0.6900    0.0000 O   0  0  0  0  0  0  0  0  0  0  0  0
    7.1962    0.8100    0.0000 O   0  0  0  0  0  0  0  0  0  0  0  0
    3.7321    0.8100    0.0000 O   0  0  0  0  0  0  0  0  0  0  0  0
    7.1962    2.8100    0.0000 O   0  0  0  0  0  0  0  0  0  0  0  0
    8.0622    1.3100    0.0000 O   0  0  0  0  0  0  0  0  0  0  0  0
    5.4641   -2.1900    0.0000 N   0  0  0  0  0  0  0  0  0  0  0  0
    7.1962    1.8100    0.0000 N   0  0  0  0  0  0  0  0  0  0  0  0
    5.4641   -0.1900    0.0000 C   0  0  0  0  0  0  0  0  0  0  0  0
    6.3301   -0.6900    0.0000 C   0  0  0  0  0  0  0  0  0  0  0  0
    4.5981   -0.6900    0.0000 C   0  0  0  0  0  0  0  0  0  0  0  0
    5.4641    0.8100    0.0000 C   0  0  0  0  0  0  0  0  0  0  0  0
    6.3301   -1.6900    0.0000 C   0  0  0  0  0  0  0  0  0  0  0  0
    4.5981   -1.6900    0.0000 C   0  0  0  0  0  0  0  0  0  0  0  0
    6.3301    1.3100    0.0000 C   0  0  0  0  0  0  0  0  0  0  0  0
    4.5981    1.3100    0.0000 C   0  0  0  0  0  0  0  0  0  0  0  0
    7.1962   -0.1900    0.0000 C   0  0  0  0  0  0  0  0  0  0  0  0
    3.7321   -0.1900    0.0000 C   0  0  0  0  0  0  0  0  0  0  0  0
    7.1962   -2.1900    0.0000 C   0  0  0  0  0  0  0  0  0  0  0  0
    3.7321   -2.1900    0.0000 C   0  0  0  0  0  0  0  0  0  0  0  0
    6.3301    2.3100    0.0000 C   0  0  0  0  0  0  0  0  0  0  0  0
    4.5981    2.3100    0.0000 C   0  0  0  0  0  0  0  0  0  0  0  0
    5.4641    2.8100    0.0000 C   0  0  0  0  0  0  0  0  0  0  0  0
    8.9282   -0.1900    0.0000 C   0  0  0  0  0  0  0  0  0  0  0  0
    2.0000   -0.1900    0.0000 C   0  0  0  0  0  0  0  0  0  0  0  0
  1 17  1  0
  1 24  1  0
  2 18  1  0
  2 25  1  0
  3 17  2  0
  4 18  2  0
  5  8  1  0
  6  8  2  0
  7 13  1  0
  7 14  1  0
  8 15  1  0
  9 10  1  0
  9 11  1  0
  9 12  1  0
 10 13  2  0
 10 17  1  0
 11 14  2  0
 11 18  1  0
 12 15  2  0
 12 16  1  0
 13 19  1  0
 14 20  1  0
 15 21  1  0
 16 22  2  0
 21 23  2  0
 22 23  1  0
M  CHG  2   5  -1   8   1
M  END
>  <PUBCHEM_COMPOUND_CID>  (28) 
4485

>  <PUBCHEM_COMPOUND_CANONICALIZED>  (28) 
1

>  <PUBCHEM_CACTVS_COMPLEXITY>  (28) 
608

>  <PUBCHEM_CACTVS_HBOND_ACCEPTOR>  (28) 
7

>  <PUBCHEM_CACTVS_HBOND_DONOR>  (28) 
1

>  <PUBCHEM_CACTVS_ROTATABLE_BOND>  (28) 
5

>  <PUBCHEM_CACTVS_SUBSKEYS>  (28) 
AAADceB7OAAAAAAAAAAAAAAAAAAAAAAAAAAwQAAAAAAAAAABAAAAHgAUAAAADQiBmAIyyILQRACJAiTSSwCCAAAgAgAoiAEAZMoIJDKAsZGAMABkkACI6UeY/+megAAAAAACAAAAAAAAAAQAAAAAAAAAAA==

>  <PUBCHEM_IUPAC_OPENEYE_NAME>  (28) 
dimethyl 2,6-dimethyl-4-(2-nitrophenyl)-1,4-dihydropyridine-3,5-dicarboxylate

>  <PUBCHEM_IUPAC_CAS_NAME>  (28) 
2,6-dimethyl-4-(2-nitrophenyl)-1,4-dihydropyridine-3,5-dicarboxylic acid dimethyl ester

>  <PUBCHEM_IUPAC_NAME_MARKUP>  (28) 
dimethyl 2,6-dimethyl-4-(2-nitrophenyl)-1,4-dihydropyridine-3,5-dicarboxylate

>  <PUBCHEM_IUPAC_NAME>  (28) 
dimethyl 2,6-dimethyl-4-(2-nitrophenyl)-1,4-dihydropyridine-3,5-dicarboxylate

>  <PUBCHEM_IUPAC_SYSTEMATIC_NAME>  (28) 
dimethyl 2,6-dimethyl-4-(2-nitrophenyl)-1,4-dihydropyridine-3,5-dicarboxylate

>  <PUBCHEM_IUPAC_TRADITIONAL_NAME>  (28) 
2,6-dimethyl-4-(2-nitrophenyl)-1,4-dihydropyridine-3,5-dicarboxylic acid dimethyl ester

>  <PUBCHEM_IUPAC_INCHI>  (28) 
InChI=1S/C17H18N2O6/c1-9-13(16(20)24-3)15(14(10(2)18-9)17(21)25-4)11-7-5-6-8-12(11)19(22)23/h5-8,15,18H,1-4H3

>  <PUBCHEM_IUPAC_INCHIKEY>  (28) 
HYIMSNHJOBLJNT-UHFFFAOYSA-N

>  <PUBCHEM_XLOGP3>  (28) 
2.2

>  <PUBCHEM_EXACT_MASS>  (28) 
346.11648630

>  <PUBCHEM_MOLECULAR_FORMULA>  (28) 
C17H18N2O6

>  <PUBCHEM_MOLECULAR_WEIGHT>  (28) 
346.3

>  <PUBCHEM_SMILES>  (28) 
CC1=C(C(C(=C(N1)C)C(=O)OC)C2=CC=CC=C2[N+](=O)[O-])C(=O)OC

>  <PUBCHEM_CONNECTIVITY_SMILES>  (28) 
CC1=C(C(C(=C(N1)C)C(=O)OC)C2=CC=CC=C2[N+](=O)[O-])C(=O)OC

>  <PUBCHEM_CACTVS_TPSA>  (28) 
110

>  <PUBCHEM_MONOISOTOPIC_WEIGHT>  (28) 
346.11648630

>  <PUBCHEM_TOTAL_CHARGE>  (28) 
0

>  <PUBCHEM_HEAVY_ATOM_COUNT>  (28) 
25

>  <PUBCHEM_ATOM_DEF_STEREO_COUNT>  (28) 
0

>  <PUBCHEM_ATOM_UDEF_STEREO_COUNT>  (28) 
0

>  <PUBCHEM_BOND_DEF_STEREO_COUNT>  (28) 
0

>  <PUBCHEM_BOND_UDEF_STEREO_COUNT>  (28) 
0

>  <PUBCHEM_ISOTOPIC_ATOM_COUNT>  (28) 
0

>  <PUBCHEM_COMPONENT_COUNT>  (28) 
1

>  <PUBCHEM_CACTVS_TAUTO_COUNT>  (28) 
-1

>  <PUBCHEM_COORDINATE_TYPE>  (28) 
1
5
255

>  <PUBCHEM_BONDANNOTATIONS>  (28) 
12  15  8
12  16  8
15  21  8
16  22  8
21  23  8
22  23  8

$$$$
4510
     RDKit          2D

 15 14  0  0  0  0  0  0  0  0999 V2000
    6.3301    1.2500    0.0000 O   0  0  0  0  0  0  0  0  0  0  0  0
    3.7321    0.7500    0.0000 O   0  0  0  0  0  0  0  0  0  0  0  0
    4.5981   -0.7500    0.0000 O   0  0  0  0  0  0  0  0  0  0  0  0
    8.0622    1.2500    0.0000 O   0  0  0  0  0  0  0  0  0  0  0  0
    7.1962   -0.2500    0.0000 O   0  0  0  0  0  0  0  0  0  0  0  0
    2.0000    0.7500    0.0000 O   0  0  0  0  0  0  0  0  0  0  0  0
    3.7321   -2.2500    0.0000 O   0  0  0  0  0  0  0  0  0  0  0  0
    2.8660    2.2500    0.0000 O   0  0  0  0  0  0  0  0  0  0  0  0
    5.4641   -2.2500    0.0000 O   0  0  0  0  0  0  0  0  0  0  0  0
    7.1962    0.7500    0.0000 N   0  0  0  0  0  0  0  0  0  0  0  0
    2.8660    1.2500    0.0000 N   0  0  0  0  0  0  0  0  0  0  0  0
    4.5981   -1.7500    0.0000 N   0  0  0  0  0  0  0  0  0  0  0  0
    5.4641    0.7500    0.0000 C   0  0  0  0  0  0  0  0  0  0  0  0
    4.5981    1.2500    0.0000 C   0  0  0  0  0  0  0  0  0  0  0  0
    5.4641   -0.2500    0.0000 C   0  0  0  0  0  0  0  0  0  0  0  0
  1 10  1  0
  1 13  1  0
  2 11  1  0
  2 14  1  0
  3 12  1  0
  3 15  1  0
  4 10  1  0
  5 10  2  0
  6 11  1  0
  7 12  1  0
  8 11  2  0
  9 12  2  0
 13 14  1  0
 13 15  1  0
M  CHG  6   4  -1   6  -1   7  -1  10   1  11   1  12   1
M  END
>  <PUBCHEM_COMPOUND_CID>  (29) 
4510

>  <PUBCHEM_COMPOUND_CANONICALIZED>  (29) 
1

>  <PUBCHEM_CACTVS_COMPLEXITY>  (29) 
218

>  <PUBCHEM_CACTVS_HBOND_ACCEPTOR>  (29) 
9

>  <PUBCHEM_CACTVS_HBOND_DONOR>  (29) 
0

>  <PUBCHEM_CACTVS_ROTATABLE_BOND>  (29) 
5

>  <PUBCHEM_CACTVS_SUBSKEYS>  (29) 
AAADcYBDPAAAAAAAAAAAAAAAAAAAAAAAAAAAAAAAAAAAAAAAAAAAGgAEAAAACBSggAIAAAAAQAABAAAAAQAAAAAAAAAAAAAAAAABAAAAAAAAAAABAAAAAAAAAAAAAAAAAAAAAAAAAAAAAAAAAAAAAAAAAA==

>  <PUBCHEM_IUPAC_OPENEYE_NAME>  (29) 
2,3-dinitrooxypropyl nitrate

>  <PUBCHEM_IUPAC_CAS_NAME>  (29) 
nitric acid 1,3-dinitrooxypropan-2-yl ester

>  <PUBCHEM_IUPAC_NAME_MARKUP>  (29) 
1,3-dinitrooxypropan-2-yl nitrate

>  <PUBCHEM_IUPAC_NAME>  (29) 
1,3-dinitrooxypropan-2-yl nitrate

>  <PUBCHEM_IUPAC_SYSTEMATIC_NAME>  (29) 
1,3-dinitrooxypropan-2-yl nitrate

>  <PUBCHEM_IUPAC_TRADITIONAL_NAME>  (29) 
nitric acid 2,3-dinitrooxypropyl ester

>  <PUBCHEM_IUPAC_INCHI>  (29) 
InChI=1S/C3H5N3O9/c7-4(8)13-1-3(15-6(11)12)2-14-5(9)10/h3H,1-2H2

>  <PUBCHEM_IUPAC_INCHIKEY>  (29) 
SNIOPGDIGTZGOP-UHFFFAOYSA-N

>  <PUBCHEM_XLOGP3>  (29) 
1.6

>  <PUBCHEM_EXACT_MASS>  (29) 
227.00257875

>  <PUBCHEM_MOLECULAR_FORMULA>  (29) 
C3H5N3O9

>  <PUBCHEM_MOLECULAR_WEIGHT>  (29) 
227.09

>  <PUBCHEM_SMILES>  (29) 
C(C(CO[N+](=O)[O-])O[N+](=O)[O-])O[N+](=O)[O-]

>  <PUBCHEM_CONNECTIVITY_SMILES>  (29) 
C(C(CO[N+](=O)[O-])O[N+](=O)[O-])O[N+](=O)[O-]

>  <PUBCHEM_CACTVS_TPSA>  (29) 
165

>  <PUBCHEM_MONOISOTOPIC_WEIGHT>  (29) 
227.00257875

>  <PUBCHEM_TOTAL_CHARGE>  (29) 
0

>  <PUBCHEM_HEAVY_ATOM_COUNT>  (29) 
15

>  <PUBCHEM_ATOM_DEF_STEREO_COUNT>  (29) 
0

>  <PUBCHEM_ATOM_UDEF_STEREO_COUNT>  (29) 
0

>  <PUBCHEM_BOND_DEF_STEREO_COUNT>  (29) 
0

>  <PUBCHEM_BOND_UDEF_STEREO_COUNT>  (29) 
0

>  <PUBCHEM_ISOTOPIC_ATOM_COUNT>  (29) 
0

>  <PUBCHEM_COMPONENT_COUNT>  (29) 
1

>  <PUBCHEM_CACTVS_TAUTO_COUNT>  (29) 
-1

>  <PUBCHEM_COORDINATE_TYPE>  (29) 
1
5
255

$$$$
4594
     RDKit          2D

 24 26  0  0  1  0  0  0  0  0999 V2000
    7.9939    0.1690    0.0000 S   0  0  0  0  0  0  0  0  0  0  0  0
   11.4939    1.0350    0.0000 O   0  0  0  0  0  0  0  0  0  0  0  0
    8.4939    1.0350    0.0000 O   0  0  0  0  0  0  0  0  0  0  0  0
    2.8660    1.1690    0.0000 O   0  0  0  0  0  0  0  0  0  0  0  0
    6.4103    0.9737    0.0000 N   0  0  0  0  0  0  0  0  0  0  0  0
    6.4103   -0.6357    0.0000 N   0  0  0  0  0  0  0  0  0  0  0  0
    9.9939   -1.5631    0.0000 N   0  0  0  0  0  0  0  0  0  0  0  0
    8.4939   -0.6970    0.0000 C   0  0  0  0  0  0  0  0  0  0  0  0
    9.4939   -0.6970    0.0000 C   0  0  0  0  0  0  0  0  0  0  0  0
    9.9939    0.1690    0.0000 C   0  0  0  0  0  0  0  0  0  0  0  0
    6.9939    0.1690    0.0000 C   0  0  0  0  0  0  0  0  0  0  0  0
    5.4641    0.6690    0.0000 C   0  0  0  0  0  0  0  0  0  0  0  0
   10.9939    0.1690    0.0000 C   0  0  0  0  0  0  0  0  0  0  0  0
    5.4641   -0.3310    0.0000 C   0  0  0  0  0  0  0  0  0  0  0  0
   11.4939   -0.6970    0.0000 C   0  0  0  0  0  0  0  0  0  0  0  0
    9.4939    1.0350    0.0000 C   0  0  0  0  0  0  0  0  0  0  0  0
    4.5981    1.1690    0.0000 C   0  0  0  0  0  0  0  0  0  0  0  0
   10.9939   -1.5631    0.0000 C   0  0  0  0  0  0  0  0  0  0  0  0
    4.5981   -0.8310    0.0000 C   0  0  0  0  0  0  0  0  0  0  0  0
    3.7321    0.6690    0.0000 C   0  0  0  0  0  0  0  0  0  0  0  0
    3.7321   -0.3310    0.0000 C   0  0  0  0  0  0  0  0  0  0  0  0
   12.4939   -0.6970    0.0000 C   0  0  0  0  0  0  0  0  0  0  0  0
   12.4939    1.0350    0.0000 C   0  0  0  0  0  0  0  0  0  0  0  0
    2.0000    0.6690    0.0000 C   0  0  0  0  0  0  0  0  0  0  0  0
  1  3  2  0
  1  8  1  0
  1 11  1  0
  2 13  1  0
  2 23  1  0
  4 20  1  0
  4 24  1  0
  5 11  1  0
  5 12  1  0
  6 11  2  0
  6 14  1  0
  7  9  2  0
  7 18  1  0
  8  9  1  0
  9 10  1  0
 10 13  2  0
 10 16  1  0
 12 14  2  0
 12 17  1  0
 13 15  1  0
 14 19  1  0
 15 18  2  0
 15 22  1  0
 17 20  2  0
 19 21  2  0
 20 21  1  0
M  END
>  <PUBCHEM_COMPOUND_CID>  (30) 
4594

>  <PUBCHEM_COMPOUND_CANONICALIZED>  (30) 
1

>  <PUBCHEM_CACTVS_COMPLEXITY>  (30) 
453

>  <PUBCHEM_CACTVS_HBOND_ACCEPTOR>  (30) 
6

>  <PUBCHEM_CACTVS_HBOND_DONOR>  (30) 
1

>  <PUBCHEM_CACTVS_ROTATABLE_BOND>  (30) 
5

>  <PUBCHEM_CACTVS_SUBSKEYS>  (30) 
AAADceB7MABAAAAAAAAAAAAAAAAAAWAAAAA8QAAAAAAAAFgB/AAAHgQQAAAADAzF3ga/1rbJlAqgAzRnZEDK2i3xMrAJ2SA+fJiMbuLkuZuUMChu0BvI6CewUAMOAEAAAgAAACAAgAAEAAAAQAAAAAAAAA==

>  <PUBCHEM_IUPAC_OPENEYE_NAME>  (30) 
6-methoxy-2-[(4-methoxy-3,5-dimethyl-2-pyridyl)methylsulfinyl]-1H-benzimidazole

>  <PUBCHEM_IUPAC_CAS_NAME>  (30) 
6-methoxy-2-[(4-methoxy-3,5-dimethyl-2-pyridinyl)methylsulfinyl]-1H-benzimidazole

>  <PUBCHEM_IUPAC_NAME_MARKUP>  (30) 
6-methoxy-2-[(4-methoxy-3,5-dimethylpyridin-2-yl)methylsulfinyl]-1<I>H</I>-benzimidazole

>  <PUBCHEM_IUPAC_NAME>  (30) 
6-methoxy-2-[(4-methoxy-3,5-dimethylpyridin-2-yl)methylsulfinyl]-1H-benzimidazole

>  <PUBCHEM_IUPAC_SYSTEMATIC_NAME>  (30) 
6-methoxy-2-[(4-methoxy-3,5-dimethyl-pyridin-2-yl)methylsulfinyl]-1H-benzimidazole

>  <PUBCHEM_IUPAC_TRADITIONAL_NAME>  (30) 
6-methoxy-2-[(4-methoxy-3,5-dimethyl-2-pyridyl)methylsulfinyl]-1H-benzimidazole

>  <PUBCHEM_IUPAC_INCHI>  (30) 
InChI=1S/C17H19N3O3S/c1-10-8-18-15(11(2)16(10)23-4)9-24(21)17-19-13-6-5-12(22-3)7-14(13)20-17/h5-8H,9H2,1-4H3,(H,19,20)

>  <PUBCHEM_IUPAC_INCHIKEY>  (30) 
SUBDBMMJDZJVOS-UHFFFAOYSA-N

>  <PUBCHEM_XLOGP3>  (30) 
2.2

>  <PUBCHEM_EXACT_MASS>  (30) 
345.11471265

>  <PUBCHEM_MOLECULAR_FORMULA>  (30) 
C17H19N3O3S

>  <PUBCHEM_MOLECULAR_WEIGHT>  (30) 
345.4

>  <PUBCHEM_SMILES>  (30) 
CC1=CN=C(C(=C1OC)C)CS(=O)C2=NC3=C(N2)C=C(C=C3)OC

>  <PUBCHEM_CONNECTIVITY_SMILES>  (30) 
CC1=CN=C(C(=C1OC)C)CS(=O)C2=NC3=C(N2)C=C(C=C3)OC

>  <PUBCHEM_CACTVS_TPSA>  (30) 
96.3

>  <PUBCHEM_MONOISOTOPIC_WEIGHT>  (30) 
345.11471265

>  <PUBCHEM_TOTAL_CHARGE>  (30) 
0

>  <PUBCHEM_HEAVY_ATOM_COUNT>  (30) 
24

>  <PUBCHEM_ATOM_DEF_STEREO_COUNT>  (30) 
0

>  <PUBCHEM_ATOM_UDEF_STEREO_COUNT>  (30) 
1

>  <PUBCHEM_BOND_DEF_STEREO_COUNT>  (30) 
0

>  <PUBCHEM_BOND_UDEF_STEREO_COUNT>  (30) 
0

>  <PUBCHEM_ISOTOPIC_ATOM_COUNT>  (30) 
0

>  <PUBCHEM_COMPONENT_COUNT>  (30) 
1

>  <PUBCHEM_CACTVS_TAUTO_COUNT>  (30) 
-1

>  <PUBCHEM_COORDINATE_TYPE>  (30) 
1
5
255

>  <PUBCHEM_BONDANNOTATIONS>  (30) 
1  8  3
10  13  8
12  14  8
12  17  8
13  15  8
14  19  8
15  18  8
17  20  8
19  21  8
20  21  8
5  11  8
5  12  8
6  11  8
6  14  8
7  18  8
7  9  8
9  10  8

$$$$
4595
     RDKit          2D

 22 25  0  0  1  0  0  0  0  0999 V2000
    5.3923   -1.6097    0.0000 O   0  0  0  0  0  0  0  0  0  0  0  0
    4.5274    1.6613    0.0000 N   0  0  0  0  0  0  0  0  0  0  0  0
    8.3780   -0.9952    0.0000 N   0  0  0  0  0  0  0  0  0  0  0  0
    9.9866   -1.1705    0.0000 N   0  0  0  0  0  0  0  0  0  0  0  0
    6.7328   -0.4536    0.0000 C   0  0  0  0  0  0  0  0  0  0  0  0
    7.0547    0.5371    0.0000 C   0  0  0  0  0  0  0  0  0  0  0  0
    6.3518    1.3057    0.0000 C   0  0  0  0  0  0  0  0  0  0  0  0
    5.3364    1.0735    0.0000 C   0  0  0  0  0  0  0  0  0  0  0  0
    5.0274    0.1224    0.0000 C   0  0  0  0  0  0  0  0  0  0  0  0
    5.7123   -0.6623    0.0000 C   0  0  0  0  0  0  0  0  0  0  0  0
    7.3991   -1.1993    0.0000 C   0  0  0  0  0  0  0  0  0  0  0  0
    4.0274    0.1224    0.0000 C   0  0  0  0  0  0  0  0  0  0  0  0
    3.7183    1.0735    0.0000 C   0  0  0  0  0  0  0  0  0  0  0  0
    4.5274    2.6613    0.0000 C   0  0  0  0  0  0  0  0  0  0  0  0
    3.3424   -0.6623    0.0000 C   0  0  0  0  0  0  0  0  0  0  0  0
    2.7029    1.3057    0.0000 C   0  0  0  0  0  0  0  0  0  0  0  0
    9.1186   -1.6672    0.0000 C   0  0  0  0  0  0  0  0  0  0  0  0
    8.7883   -0.0832    0.0000 C   0  0  0  0  0  0  0  0  0  0  0  0
    2.3219   -0.4536    0.0000 C   0  0  0  0  0  0  0  0  0  0  0  0
    2.0000    0.5371    0.0000 C   0  0  0  0  0  0  0  0  0  0  0  0
    9.7824   -0.1916    0.0000 C   0  0  0  0  0  0  0  0  0  0  0  0
    9.0102   -2.6613    0.0000 C   0  0  0  0  0  0  0  0  0  0  0  0
  1 10  2  0
  2  8  1  0
  2 13  1  0
  2 14  1  0
  3 11  1  0
  3 17  1  0
  3 18  1  0
  4 17  2  0
  4 21  1  0
  5  6  1  0
  5 10  1  0
  5 11  1  0
  6  7  1  0
  7  8  1  0
  8  9  2  0
  9 10  1  0
  9 12  1  0
 12 13  2  0
 12 15  1  0
 13 16  1  0
 15 19  2  0
 16 20  2  0
 17 22  1  0
 18 21  2  0
 19 20  1  0
M  END
>  <PUBCHEM_COMPOUND_CID>  (31) 
4595

>  <PUBCHEM_COMPOUND_CANONICALIZED>  (31) 
1

>  <PUBCHEM_CACTVS_COMPLEXITY>  (31) 
440

>  <PUBCHEM_CACTVS_HBOND_ACCEPTOR>  (31) 
2

>  <PUBCHEM_CACTVS_HBOND_DONOR>  (31) 
0

>  <PUBCHEM_CACTVS_ROTATABLE_BOND>  (31) 
2

>  <PUBCHEM_CACTVS_SUBSKEYS>  (31) 
AAADceB7IAAAAAAAAAAAAAAAAAAAAWLAAAAwYAAAAAAAAFgB/AAAHgAAAAAADQzBnwQ/0PcMEACoA7Z3ZACCgC01EqAJ2CE4dNiIaPrAnZGUIYhogALIyWccicCegAAAAAACAAAQAAQAAAQAAAAAAAAAAA==

>  <PUBCHEM_IUPAC_OPENEYE_NAME>  (31) 
9-methyl-3-[(2-methylimidazol-1-yl)methyl]-2,3-dihydro-1H-carbazol-4-one

>  <PUBCHEM_IUPAC_CAS_NAME>  (31) 
9-methyl-3-[(2-methyl-1-imidazolyl)methyl]-2,3-dihydro-1H-carbazol-4-one

>  <PUBCHEM_IUPAC_NAME_MARKUP>  (31) 
9-methyl-3-[(2-methylimidazol-1-yl)methyl]-2,3-dihydro-1<I>H</I>-carbazol-4-one

>  <PUBCHEM_IUPAC_NAME>  (31) 
9-methyl-3-[(2-methylimidazol-1-yl)methyl]-2,3-dihydro-1H-carbazol-4-one

>  <PUBCHEM_IUPAC_SYSTEMATIC_NAME>  (31) 
9-methyl-3-[(2-methylimidazol-1-yl)methyl]-2,3-dihydro-1H-carbazol-4-one

>  <PUBCHEM_IUPAC_TRADITIONAL_NAME>  (31) 
9-methyl-3-[(2-methylimidazol-1-yl)methyl]-2,3-dihydro-1H-carbazol-4-one

>  <PUBCHEM_IUPAC_INCHI>  (31) 
InChI=1S/C18H19N3O/c1-12-19-9-10-21(12)11-13-7-8-16-17(18(13)22)14-5-3-4-6-15(14)20(16)2/h3-6,9-10,13H,7-8,11H2,1-2H3

>  <PUBCHEM_IUPAC_INCHIKEY>  (31) 
FELGMEQIXOGIFQ-UHFFFAOYSA-N

>  <PUBCHEM_XLOGP3_AA>  (31) 
2.3

>  <PUBCHEM_EXACT_MASS>  (31) 
293.152812238

>  <PUBCHEM_MOLECULAR_FORMULA>  (31) 
C18H19N3O

>  <PUBCHEM_MOLECULAR_WEIGHT>  (31) 
293.4

>  <PUBCHEM_SMILES>  (31) 
CC1=NC=CN1CC2CCC3=C(C2=O)C4=CC=CC=C4N3C

>  <PUBCHEM_CONNECTIVITY_SMILES>  (31) 
CC1=NC=CN1CC2CCC3=C(C2=O)C4=CC=CC=C4N3C

>  <PUBCHEM_CACTVS_TPSA>  (31) 
39.8

>  <PUBCHEM_MONOISOTOPIC_WEIGHT>  (31) 
293.152812238

>  <PUBCHEM_TOTAL_CHARGE>  (31) 
0

>  <PUBCHEM_HEAVY_ATOM_COUNT>  (31) 
22

>  <PUBCHEM_ATOM_DEF_STEREO_COUNT>  (31) 
0

>  <PUBCHEM_ATOM_UDEF_STEREO_COUNT>  (31) 
1

>  <PUBCHEM_BOND_DEF_STEREO_COUNT>  (31) 
0

>  <PUBCHEM_BOND_UDEF_STEREO_COUNT>  (31) 
0

>  <PUBCHEM_ISOTOPIC_ATOM_COUNT>  (31) 
0

>  <PUBCHEM_COMPONENT_COUNT>  (31) 
1

>  <PUBCHEM_CACTVS_TAUTO_COUNT>  (31) 
-1

>  <PUBCHEM_COORDINATE_TYPE>  (31) 
1
5
255

>  <PUBCHEM_BONDANNOTATIONS>  (31) 
12  13  8
12  15  8
13  16  8
15  19  8
16  20  8
18  21  8
19  20  8
2  13  8
2  8  8
3  17  8
3  18  8
4  17  8
4  21  8
5  11  3
8  9  8
9  12  8

$$$$
4679
     RDKit          2D

 26 28  0  0  1  0  0  0  0  0999 V2000
    8.8600    0.0000    0.0000 S   0  0  0  0  0  0  0  0  0  0  0  0
    2.0000    1.0000    0.0000 F   0  0  0  0  0  0  0  0  0  0  0  0
    2.8660   -0.5000    0.0000 F   0  0  0  0  0  0  0  0  0  0  0  0
   10.3600    0.8660    0.0000 O   0  0  0  0  0  0  0  0  0  0  0  0
    3.7321    1.0000    0.0000 O   0  0  0  0  0  0  0  0  0  0  0  0
    9.3600    0.8660    0.0000 O   0  0  0  0  0  0  0  0  0  0  0  0
   12.3600    0.8660    0.0000 O   0  0  0  0  0  0  0  0  0  0  0  0
    7.2764    0.8047    0.0000 N   0  0  0  0  0  0  0  0  0  0  0  0
    7.2764   -0.8047    0.0000 N   0  0  0  0  0  0  0  0  0  0  0  0
   10.8600   -1.7321    0.0000 N   0  0  0  0  0  0  0  0  0  0  0  0
    6.3301    0.5000    0.0000 C   0  0  0  0  0  0  0  0  0  0  0  0
    7.8600    0.0000    0.0000 C   0  0  0  0  0  0  0  0  0  0  0  0
    6.3301   -0.5000    0.0000 C   0  0  0  0  0  0  0  0  0  0  0  0
    9.3600   -0.8660    0.0000 C   0  0  0  0  0  0  0  0  0  0  0  0
   10.3600   -0.8660    0.0000 C   0  0  0  0  0  0  0  0  0  0  0  0
    5.4641    1.0000    0.0000 C   0  0  0  0  0  0  0  0  0  0  0  0
    5.4641   -1.0000    0.0000 C   0  0  0  0  0  0  0  0  0  0  0  0
   10.8600    0.0000    0.0000 C   0  0  0  0  0  0  0  0  0  0  0  0
    4.5981    0.5000    0.0000 C   0  0  0  0  0  0  0  0  0  0  0  0
    4.5981   -0.5000    0.0000 C   0  0  0  0  0  0  0  0  0  0  0  0
   11.8600   -0.0000    0.0000 C   0  0  0  0  0  0  0  0  0  0  0  0
   12.3600   -0.8660    0.0000 C   0  0  0  0  0  0  0  0  0  0  0  0
   11.8600   -1.7321    0.0000 C   0  0  0  0  0  0  0  0  0  0  0  0
   10.8600    1.7321    0.0000 C   0  0  0  0  0  0  0  0  0  0  0  0
    2.8660    0.5000    0.0000 C   0  0  0  0  0  0  0  0  0  0  0  0
   13.3600    0.8660    0.0000 C   0  0  0  0  0  0  0  0  0  0  0  0
  1  6  2  0
  1 12  1  0
  1 14  1  0
  2 25  1  0
  3 25  1  0
  4 18  1  0
  4 24  1  0
  5 19  1  0
  5 25  1  0
  7 21  1  0
  7 26  1  0
  8 11  1  0
  8 12  1  0
  9 12  2  0
  9 13  1  0
 10 15  2  0
 10 23  1  0
 11 13  2  0
 11 16  1  0
 13 17  1  0
 14 15  1  0
 15 18  1  0
 16 19  2  0
 17 20  2  0
 18 21  2  0
 19 20  1  0
 21 22  1  0
 22 23  2  0
M  END
>  <PUBCHEM_COMPOUND_CID>  (32) 
4679

>  <PUBCHEM_COMPOUND_CANONICALIZED>  (32) 
1

>  <PUBCHEM_CACTVS_COMPLEXITY>  (32) 
490

>  <PUBCHEM_CACTVS_HBOND_ACCEPTOR>  (32) 
9

>  <PUBCHEM_CACTVS_HBOND_DONOR>  (32) 
1

>  <PUBCHEM_CACTVS_ROTATABLE_BOND>  (32) 
7

>  <PUBCHEM_CACTVS_SUBSKEYS>  (32) 
AAADccB7OYBAAAAAAAAAAAAAAAAAAWAAAAA8QAAAAAAAAFgB/AAAHwQQAAAACAzF1ha/1rbJlAqgATRnZETK2i3xcrAJ2SA//JiPbuLkuZuVMCpu0Bva6CewUAMAAEAAAgAAACAAgAAEAAAAQAAAAAAAAA==

>  <PUBCHEM_IUPAC_OPENEYE_NAME>  (32) 
6-(difluoromethoxy)-2-[(3,4-dimethoxy-2-pyridyl)methylsulfinyl]-1H-benzimidazole

>  <PUBCHEM_IUPAC_CAS_NAME>  (32) 
6-(difluoromethoxy)-2-[(3,4-dimethoxy-2-pyridinyl)methylsulfinyl]-1H-benzimidazole

>  <PUBCHEM_IUPAC_NAME_MARKUP>  (32) 
6-(difluoromethoxy)-2-[(3,4-dimethoxypyridin-2-yl)methylsulfinyl]-1<I>H</I>-benzimidazole

>  <PUBCHEM_IUPAC_NAME>  (32) 
6-(difluoromethoxy)-2-[(3,4-dimethoxypyridin-2-yl)methylsulfinyl]-1H-benzimidazole

>  <PUBCHEM_IUPAC_SYSTEMATIC_NAME>  (32) 
6-[bis(fluoranyl)methoxy]-2-[(3,4-dimethoxypyridin-2-yl)methylsulfinyl]-1H-benzimidazole

>  <PUBCHEM_IUPAC_TRADITIONAL_NAME>  (32) 
6-(difluoromethoxy)-2-[(3,4-dimethoxy-2-pyridyl)methylsulfinyl]-1H-benzimidazole

>  <PUBCHEM_IUPAC_INCHI>  (32) 
InChI=1S/C16H15F2N3O4S/c1-23-13-5-6-19-12(14(13)24-2)8-26(22)16-20-10-4-3-9(25-15(17)18)7-11(10)21-16/h3-7,15H,8H2,1-2H3,(H,20,21)

>  <PUBCHEM_IUPAC_INCHIKEY>  (32) 
IQPSEEYGBUAQFF-UHFFFAOYSA-N

>  <PUBCHEM_XLOGP3_AA>  (32) 
2.4

>  <PUBCHEM_EXACT_MASS>  (32) 
383.07513347

>  <PUBCHEM_MOLECULAR_FORMULA>  (32) 
C16H15F2N3O4S

>  <PUBCHEM_MOLECULAR_WEIGHT>  (32) 
383.4

>  <PUBCHEM_SMILES>  (32) 
COC1=C(C(=NC=C1)CS(=O)C2=NC3=C(N2)C=C(C=C3)OC(F)F)OC

>  <PUBCHEM_CONNECTIVITY_SMILES>  (32) 
COC1=C(C(=NC=C1)CS(=O)C2=NC3=C(N2)C=C(C=C3)OC(F)F)OC

>  <PUBCHEM_CACTVS_TPSA>  (32) 
106

>  <PUBCHEM_MONOISOTOPIC_WEIGHT>  (32) 
383.07513347

>  <PUBCHEM_TOTAL_CHARGE>  (32) 
0

>  <PUBCHEM_HEAVY_ATOM_COUNT>  (32) 
26

>  <PUBCHEM_ATOM_DEF_STEREO_COUNT>  (32) 
0

>  <PUBCHEM_ATOM_UDEF_STEREO_COUNT>  (32) 
1

>  <PUBCHEM_BOND_DEF_STEREO_COUNT>  (32) 
0

>  <PUBCHEM_BOND_UDEF_STEREO_COUNT>  (32) 
0

>  <PUBCHEM_ISOTOPIC_ATOM_COUNT>  (32) 
0

>  <PUBCHEM_COMPONENT_COUNT>  (32) 
1

>  <PUBCHEM_CACTVS_TAUTO_COUNT>  (32) 
-1

>  <PUBCHEM_COORDINATE_TYPE>  (32) 
1
5
255

>  <PUBCHEM_BONDANNOTATIONS>  (32) 
1  14  3
10  15  8
10  23  8
11  13  8
11  16  8
13  17  8
15  18  8
16  19  8
17  20  8
18  21  8
19  20  8
21  22  8
22  23  8
8  11  8
8  12  8
9  12  8
9  13  8

$$$$
4946
     RDKit          2D

 19 20  0  0  1  0  0  0  0  0999 V2000
    5.4641    0.7327    0.0000 O   0  0  0  0  0  0  0  0  0  0  0  0
    5.4641   -1.2673    0.0000 O   0  0  0  0  0  0  0  0  0  0  0  0
    3.7321   -2.2673    0.0000 N   0  0  0  0  0  0  0  0  0  0  0  0
    4.5981   -0.7673    0.0000 C   0  0  0  0  0  0  0  0  0  0  0  0
    3.7321   -1.2673    0.0000 C   0  0  0  0  0  0  0  0  0  0  0  0
    2.8660   -2.7673    0.0000 C   0  0  0  0  0  0  0  0  0  0  0  0
    4.5981    0.2327    0.0000 C   0  0  0  0  0  0  0  0  0  0  0  0
    2.8660   -3.7673    0.0000 C   0  0  0  0  0  0  0  0  0  0  0  0
    2.0000   -2.2673    0.0000 C   0  0  0  0  0  0  0  0  0  0  0  0
    5.4641    1.7327    0.0000 C   0  0  0  0  0  0  0  0  0  0  0  0
    6.3301    2.2327    0.0000 C   0  0  0  0  0  0  0  0  0  0  0  0
    6.3301    3.2327    0.0000 C   0  0  0  0  0  0  0  0  0  0  0  0
    4.5981    2.2327    0.0000 C   0  0  0  0  0  0  0  0  0  0  0  0
    7.2241    1.6980    0.0000 C   0  0  0  0  0  0  0  0  0  0  0  0
    5.4641    3.7327    0.0000 C   0  0  0  0  0  0  0  0  0  0  0  0
    4.5981    3.2327    0.0000 C   0  0  0  0  0  0  0  0  0  0  0  0
    7.2241    3.7673    0.0000 C   0  0  0  0  0  0  0  0  0  0  0  0
    8.1301    2.2119    0.0000 C   0  0  0  0  0  0  0  0  0  0  0  0
    8.1301    3.2535    0.0000 C   0  0  0  0  0  0  0  0  0  0  0  0
  1  7  1  0
  1 10  1  0
  2  4  1  0
  3  5  1  0
  3  6  1  0
  4  5  1  0
  4  7  1  0
  6  8  1  0
  6  9  1  0
 10 11  2  0
 10 13  1  0
 11 12  1  0
 11 14  1  0
 12 15  2  0
 12 17  1  0
 13 16  2  0
 14 18  2  0
 15 16  1  0
 17 19  2  0
 18 19  1  0
M  END
>  <PUBCHEM_COMPOUND_CID>  (33) 
4946

>  <PUBCHEM_COMPOUND_CANONICALIZED>  (33) 
1

>  <PUBCHEM_CACTVS_COMPLEXITY>  (33) 
257

>  <PUBCHEM_CACTVS_HBOND_ACCEPTOR>  (33) 
3

>  <PUBCHEM_CACTVS_HBOND_DONOR>  (33) 
2

>  <PUBCHEM_CACTVS_ROTATABLE_BOND>  (33) 
6

>  <PUBCHEM_CACTVS_SUBSKEYS>  (33) 
AAADceB6MAAAAAAAAAAAAAAAAAAAAAAAAAAwYAAAAAAAAADBUAAAHgAQCAAADDzhmAYyBsLABgCAAiBCAAACCAAgIAAIiIAOCIgPNiKEMRqGOCCm0BGbqAeAwLAOgAABAAAYAAAAAAIAADAAAAAAAAAAAA==

>  <PUBCHEM_IUPAC_OPENEYE_NAME>  (33) 
1-(isopropylamino)-3-(1-naphthyloxy)propan-2-ol

>  <PUBCHEM_IUPAC_CAS_NAME>  (33) 
1-(1-naphthalenyloxy)-3-(propan-2-ylamino)-2-propanol

>  <PUBCHEM_IUPAC_NAME_MARKUP>  (33) 
1-naphthalen-1-yloxy-3-(propan-2-ylamino)propan-2-ol

>  <PUBCHEM_IUPAC_NAME>  (33) 
1-naphthalen-1-yloxy-3-(propan-2-ylamino)propan-2-ol

>  <PUBCHEM_IUPAC_SYSTEMATIC_NAME>  (33) 
1-naphthalen-1-yloxy-3-(propan-2-ylamino)propan-2-ol

>  <PUBCHEM_IUPAC_TRADITIONAL_NAME>  (33) 
1-(isopropylamino)-3-(1-naphthoxy)propan-2-ol

>  <PUBCHEM_IUPAC_INCHI>  (33) 
InChI=1S/C16H21NO2/c1-12(2)17-10-14(18)11-19-16-9-5-7-13-6-3-4-8-15(13)16/h3-9,12,14,17-18H,10-11H2,1-2H3

>  <PUBCHEM_IUPAC_INCHIKEY>  (33) 
AQHHHDLHHXJYJD-UHFFFAOYSA-N

>  <PUBCHEM_XLOGP3>  (33) 
3

>  <PUBCHEM_EXACT_MASS>  (33) 
259.157228913

>  <PUBCHEM_MOLECULAR_FORMULA>  (33) 
C16H21NO2

>  <PUBCHEM_MOLECULAR_WEIGHT>  (33) 
259.34

>  <PUBCHEM_SMILES>  (33) 
CC(C)NCC(COC1=CC=CC2=CC=CC=C21)O

>  <PUBCHEM_CONNECTIVITY_SMILES>  (33) 
CC(C)NCC(COC1=CC=CC2=CC=CC=C21)O

>  <PUBCHEM_CACTVS_TPSA>  (33) 
41.5

>  <PUBCHEM_MONOISOTOPIC_WEIGHT>  (33) 
259.157228913

>  <PUBCHEM_TOTAL_CHARGE>  (33) 
0

>  <PUBCHEM_HEAVY_ATOM_COUNT>  (33) 
19

>  <PUBCHEM_ATOM_DEF_STEREO_COUNT>  (33) 
0

>  <PUBCHEM_ATOM_UDEF_STEREO_COUNT>  (33) 
1

>  <PUBCHEM_BOND_DEF_STEREO_COUNT>  (33) 
0

>  <PUBCHEM_BOND_UDEF_STEREO_COUNT>  (33) 
0

>  <PUBCHEM_ISOTOPIC_ATOM_COUNT>  (33) 
0

>  <PUBCHEM_COMPONENT_COUNT>  (33) 
1

>  <PUBCHEM_CACTVS_TAUTO_COUNT>  (33) 
-1

>  <PUBCHEM_COORDINATE_TYPE>  (33) 
1
5
255

>  <PUBCHEM_BONDANNOTATIONS>  (33) 
10  11  8
10  13  8
11  12  8
11  14  8
12  15  8
12  17  8
13  16  8
14  18  8
15  16  8
17  19  8
18  19  8
4  2  3

$$$$
5002
     RDKit          2D

 27 30  0  0  0  0  0  0  0  0999 V2000
    4.8830   -5.1737    0.0000 S   0  0  0  0  0  0  0  0  0  0  0  0
    2.7770    2.3480    0.0000 O   0  0  0  0  0  0  0  0  0  0  0  0
    3.4697    4.9014    0.0000 O   0  0  0  0  0  0  0  0  0  0  0  0
    3.0814   -0.2802    0.0000 N   0  0  0  0  0  0  0  0  0  0  0  0
    3.9491   -2.0821    0.0000 N   0  0  0  0  0  0  0  0  0  0  0  0
    5.3830   -2.9831    0.0000 N   0  0  0  0  0  0  0  0  0  0  0  0
    4.0786   -0.3549    0.0000 C   0  0  0  0  0  0  0  0  0  0  0  0
    2.5181   -1.1064    0.0000 C   0  0  0  0  0  0  0  0  0  0  0  0
    4.5125   -1.2559    0.0000 C   0  0  0  0  0  0  0  0  0  0  0  0
    2.9519   -2.0074    0.0000 C   0  0  0  0  0  0  0  0  0  0  0  0
    2.6475    0.6208    0.0000 C   0  0  0  0  0  0  0  0  0  0  0  0
    4.3830   -2.9831    0.0000 C   0  0  0  0  0  0  0  0  0  0  0  0
    3.2108    1.4470    0.0000 C   0  0  0  0  0  0  0  0  0  0  0  0
    3.7595   -3.7649    0.0000 C   0  0  0  0  0  0  0  0  0  0  0  0
    3.9820   -4.7399    0.0000 C   0  0  0  0  0  0  0  0  0  0  0  0
    2.7690   -3.4426    0.0000 C   0  0  0  0  0  0  0  0  0  0  0  0
    6.0065   -3.7649    0.0000 C   0  0  0  0  0  0  0  0  0  0  0  0
    5.7840   -4.7399    0.0000 C   0  0  0  0  0  0  0  0  0  0  0  0
    3.2295   -5.4600    0.0000 C   0  0  0  0  0  0  0  0  0  0  0  0
    3.3403    3.1742    0.0000 C   0  0  0  0  0  0  0  0  0  0  0  0
    2.0000   -4.1452    0.0000 C   0  0  0  0  0  0  0  0  0  0  0  0
    2.2318   -5.1607    0.0000 C   0  0  0  0  0  0  0  0  0  0  0  0
    6.9970   -3.4426    0.0000 C   0  0  0  0  0  0  0  0  0  0  0  0
    6.5365   -5.4601    0.0000 C   0  0  0  0  0  0  0  0  0  0  0  0
    2.9064    4.0752    0.0000 C   0  0  0  0  0  0  0  0  0  0  0  0
    7.7660   -4.1452    0.0000 C   0  0  0  0  0  0  0  0  0  0  0  0
    7.5342   -5.1607    0.0000 C   0  0  0  0  0  0  0  0  0  0  0  0
  1 15  1  0
  1 18  1  0
  2 13  1  0
  2 20  1  0
  3 25  1  0
  4  7  1  0
  4  8  1  0
  4 11  1  0
  5  9  1  0
  5 10  1  0
  5 12  1  0
  6 12  2  0
  6 17  1  0
  7  9  1  0
  8 10  1  0
 11 13  1  0
 12 14  1  0
 14 15  2  0
 14 16  1  0
 15 19  1  0
 16 21  2  0
 17 18  2  0
 17 23  1  0
 18 24  1  0
 19 22  2  0
 20 25  1  0
 21 22  1  0
 23 26  2  0
 24 27  2  0
 26 27  1  0
M  END
>  <PUBCHEM_COMPOUND_CID>  (34) 
5002

>  <PUBCHEM_COMPOUND_CANONICALIZED>  (34) 
1

>  <PUBCHEM_CACTVS_COMPLEXITY>  (34) 
496

>  <PUBCHEM_CACTVS_HBOND_ACCEPTOR>  (34) 
5

>  <PUBCHEM_CACTVS_HBOND_DONOR>  (34) 
1

>  <PUBCHEM_CACTVS_ROTATABLE_BOND>  (34) 
6

>  <PUBCHEM_CACTVS_SUBSKEYS>  (34) 
AAADceB7MABAAAAAAAAAAAAAAAAAAAAAAAA8YIAABAAAAAABQAAAHgQACAAADAjh2AYxwYMABgigAiZiZACCAAEgChAJiBwoZJgLcKKgmZGXIAhggAC7yAcQgAAOAAAAAAAEAQAAAAAAAAgCAAAAAAAAAA==

>  <PUBCHEM_IUPAC_OPENEYE_NAME>  (34) 
2-[2-(4-benzo[b][1,4]benzothiazepin-6-ylpiperazin-1-yl)ethoxy]ethanol

>  <PUBCHEM_IUPAC_CAS_NAME>  (34) 
2-[2-[4-(6-benzo[b][1,4]benzothiazepinyl)-1-piperazinyl]ethoxy]ethanol

>  <PUBCHEM_IUPAC_NAME_MARKUP>  (34) 
2-[2-(4-benzo[b][1,4]benzothiazepin-6-ylpiperazin-1-yl)ethoxy]ethanol

>  <PUBCHEM_IUPAC_NAME>  (34) 
2-[2-(4-benzo[b][1,4]benzothiazepin-6-ylpiperazin-1-yl)ethoxy]ethanol

>  <PUBCHEM_IUPAC_SYSTEMATIC_NAME>  (34) 
2-[2-(4-benzo[b][1,4]benzothiazepin-6-ylpiperazin-1-yl)ethoxy]ethanol

>  <PUBCHEM_IUPAC_TRADITIONAL_NAME>  (34) 
2-[2-(4-benzo[b][1,4]benzothiazepin-6-ylpiperazino)ethoxy]ethanol

>  <PUBCHEM_IUPAC_INCHI>  (34) 
InChI=1S/C21H25N3O2S/c25-14-16-26-15-13-23-9-11-24(12-10-23)21-17-5-1-3-7-19(17)27-20-8-4-2-6-18(20)22-21/h1-8,25H,9-16H2

>  <PUBCHEM_IUPAC_INCHIKEY>  (34) 
URKOMYMAXPYINW-UHFFFAOYSA-N

>  <PUBCHEM_XLOGP3_AA>  (34) 
2.1

>  <PUBCHEM_EXACT_MASS>  (34) 
383.16674822

>  <PUBCHEM_MOLECULAR_FORMULA>  (34) 
C21H25N3O2S

>  <PUBCHEM_MOLECULAR_WEIGHT>  (34) 
383.5

>  <PUBCHEM_SMILES>  (34) 
C1CN(CCN1CCOCCO)C2=NC3=CC=CC=C3SC4=CC=CC=C42

>  <PUBCHEM_CONNECTIVITY_SMILES>  (34) 
C1CN(CCN1CCOCCO)C2=NC3=CC=CC=C3SC4=CC=CC=C42

>  <PUBCHEM_CACTVS_TPSA>  (34) 
73.6

>  <PUBCHEM_MONOISOTOPIC_WEIGHT>  (34) 
383.16674822

>  <PUBCHEM_TOTAL_CHARGE>  (34) 
0

>  <PUBCHEM_HEAVY_ATOM_COUNT>  (34) 
27

>  <PUBCHEM_ATOM_DEF_STEREO_COUNT>  (34) 
0

>  <PUBCHEM_ATOM_UDEF_STEREO_COUNT>  (34) 
0

>  <PUBCHEM_BOND_DEF_STEREO_COUNT>  (34) 
0

>  <PUBCHEM_BOND_UDEF_STEREO_COUNT>  (34) 
0

>  <PUBCHEM_ISOTOPIC_ATOM_COUNT>  (34) 
0

>  <PUBCHEM_COMPONENT_COUNT>  (34) 
1

>  <PUBCHEM_CACTVS_TAUTO_COUNT>  (34) 
-1

>  <PUBCHEM_COORDINATE_TYPE>  (34) 
1
5
255

>  <PUBCHEM_BONDANNOTATIONS>  (34) 
14  15  8
14  16  8
15  19  8
16  21  8
17  18  8
17  23  8
18  24  8
19  22  8
21  22  8
23  26  8
24  27  8
26  27  8

$$$$
5073
     RDKit          2D

 30 34  0  0  0  0  0  0  0  0999 V2000
   14.5715   -0.1446    0.0000 F   0  0  0  0  0  0  0  0  0  0  0  0
   11.8031   -2.3663    0.0000 O   0  0  0  0  0  0  0  0  0  0  0  0
    4.6660   -0.6684    0.0000 O   0  0  0  0  0  0  0  0  0  0  0  0
    8.1301    0.3316    0.0000 N   0  0  0  0  0  0  0  0  0  0  0  0
    3.8000    0.8316    0.0000 N   0  0  0  0  0  0  0  0  0  0  0  0
   10.8313   -2.1571    0.0000 N   0  0  0  0  0  0  0  0  0  0  0  0
    4.6660    2.3316    0.0000 N   0  0  0  0  0  0  0  0  0  0  0  0
    9.8622   -0.6684    0.0000 C   0  0  0  0  0  0  0  0  0  0  0  0
    8.9962   -1.1684    0.0000 C   0  0  0  0  0  0  0  0  0  0  0  0
    9.8622    0.3316    0.0000 C   0  0  0  0  0  0  0  0  0  0  0  0
    8.1301   -0.6684    0.0000 C   0  0  0  0  0  0  0  0  0  0  0  0
    8.9962    0.8316    0.0000 C   0  0  0  0  0  0  0  0  0  0  0  0
    7.2641    0.8316    0.0000 C   0  0  0  0  0  0  0  0  0  0  0  0
   10.7282   -1.1684    0.0000 C   0  0  0  0  0  0  0  0  0  0  0  0
    6.3981    0.3316    0.0000 C   0  0  0  0  0  0  0  0  0  0  0  0
    5.5321    0.8316    0.0000 C   0  0  0  0  0  0  0  0  0  0  0  0
   11.6360   -0.7633    0.0000 C   0  0  0  0  0  0  0  0  0  0  0  0
    2.9061    0.2970    0.0000 C   0  0  0  0  0  0  0  0  0  0  0  0
    2.0000    0.8108    0.0000 C   0  0  0  0  0  0  0  0  0  0  0  0
    3.8000    1.8316    0.0000 C   0  0  0  0  0  0  0  0  0  0  0  0
    2.0000    1.8525    0.0000 C   0  0  0  0  0  0  0  0  0  0  0  0
    2.9061    2.3663    0.0000 C   0  0  0  0  0  0  0  0  0  0  0  0
    4.6660    0.3316    0.0000 C   0  0  0  0  0  0  0  0  0  0  0  0
    5.5321    1.8316    0.0000 C   0  0  0  0  0  0  0  0  0  0  0  0
   12.3038   -1.5076    0.0000 C   0  0  0  0  0  0  0  0  0  0  0  0
   11.9467    0.1873    0.0000 C   0  0  0  0  0  0  0  0  0  0  0  0
    6.3981    2.3316    0.0000 C   0  0  0  0  0  0  0  0  0  0  0  0
   13.2823   -1.3013    0.0000 C   0  0  0  0  0  0  0  0  0  0  0  0
   12.9252    0.3935    0.0000 C   0  0  0  0  0  0  0  0  0  0  0  0
   13.5930   -0.3508    0.0000 C   0  0  0  0  0  0  0  0  0  0  0  0
  1 30  1  0
  2  6  1  0
  2 25  1  0
  3 23  2  0
  4 11  1  0
  4 12  1  0
  4 13  1  0
  5 18  1  0
  5 20  1  0
  5 23  1  0
  6 14  2  0
  7 20  2  0
  7 24  1  0
  8  9  1  0
  8 10  1  0
  8 14  1  0
  9 11  1  0
 10 12  1  0
 13 15  1  0
 14 17  1  0
 15 16  1  0
 16 23  1  0
 16 24  2  0
 17 25  2  0
 17 26  1  0
 18 19  1  0
 19 21  1  0
 20 22  1  0
 21 22  1  0
 24 27  1  0
 25 28  1  0
 26 29  2  0
 28 30  2  0
 29 30  1  0
M  END
>  <PUBCHEM_COMPOUND_CID>  (35) 
5073

>  <PUBCHEM_COMPOUND_CANONICALIZED>  (35) 
1

>  <PUBCHEM_CACTVS_COMPLEXITY>  (35) 
731

>  <PUBCHEM_CACTVS_HBOND_ACCEPTOR>  (35) 
6

>  <PUBCHEM_CACTVS_HBOND_DONOR>  (35) 
0

>  <PUBCHEM_CACTVS_ROTATABLE_BOND>  (35) 
4

>  <PUBCHEM_CACTVS_SUBSKEYS>  (35) 
AAADceB7sQAAAAAAAAAAAAAAAAAAAWAAAAA8WIEAAAAAAFiB8AAAHwAEAAAADQzBngwzhtMQAACpA6dydgCCAAEkIAApmCE+TNoIJrqAnZOEMYBmxhmIycecyOCOAAAAAAAIAAAAAAAAABAAAAAAAAAAAA==

>  <PUBCHEM_IUPAC_OPENEYE_NAME>  (35) 
3-[2-[4-(6-fluoro-1,2-benzoxazol-3-yl)-1-piperidyl]ethyl]-2-methyl-6,7,8,9-tetrahydropyrido[1,2-a]pyrimidin-4-one

>  <PUBCHEM_IUPAC_CAS_NAME>  (35) 
3-[2-[4-(6-fluoro-1,2-benzoxazol-3-yl)-1-piperidinyl]ethyl]-2-methyl-6,7,8,9-tetrahydropyrido[1,2-a]pyrimidin-4-one

>  <PUBCHEM_IUPAC_NAME_MARKUP>  (35) 
3-[2-[4-(6-fluoro-1,2-benzoxazol-3-yl)piperidin-1-yl]ethyl]-2-methyl-6,7,8,9-tetrahydropyrido[1,2-a]pyrimidin-4-one

>  <PUBCHEM_IUPAC_NAME>  (35) 
3-[2-[4-(6-fluoro-1,2-benzoxazol-3-yl)piperidin-1-yl]ethyl]-2-methyl-6,7,8,9-tetrahydropyrido[1,2-a]pyrimidin-4-one

>  <PUBCHEM_IUPAC_SYSTEMATIC_NAME>  (35) 
3-[2-[4-(6-fluoranyl-1,2-benzoxazol-3-yl)piperidin-1-yl]ethyl]-2-methyl-6,7,8,9-tetrahydropyrido[1,2-a]pyrimidin-4-one

>  <PUBCHEM_IUPAC_TRADITIONAL_NAME>  (35) 
3-[2-[4-(6-fluoroindoxazen-3-yl)piperidino]ethyl]-2-methyl-6,7,8,9-tetrahydropyrido[1,2-a]pyrimidin-4-one

>  <PUBCHEM_IUPAC_INCHI>  (35) 
InChI=1S/C23H27FN4O2/c1-15-18(23(29)28-10-3-2-4-21(28)25-15)9-13-27-11-7-16(8-12-27)22-19-6-5-17(24)14-20(19)30-26-22/h5-6,14,16H,2-4,7-13H2,1H3

>  <PUBCHEM_IUPAC_INCHIKEY>  (35) 
RAPZEAPATHNIPO-UHFFFAOYSA-N

>  <PUBCHEM_XLOGP3_AA>  (35) 
2.7

>  <PUBCHEM_EXACT_MASS>  (35) 
410.21180428

>  <PUBCHEM_MOLECULAR_FORMULA>  (35) 
C23H27FN4O2

>  <PUBCHEM_MOLECULAR_WEIGHT>  (35) 
410.5

>  <PUBCHEM_SMILES>  (35) 
CC1=C(C(=O)N2CCCCC2=N1)CCN3CCC(CC3)C4=NOC5=C4C=CC(=C5)F

>  <PUBCHEM_CONNECTIVITY_SMILES>  (35) 
CC1=C(C(=O)N2CCCCC2=N1)CCN3CCC(CC3)C4=NOC5=C4C=CC(=C5)F

>  <PUBCHEM_CACTVS_TPSA>  (35) 
61.9

>  <PUBCHEM_MONOISOTOPIC_WEIGHT>  (35) 
410.21180428

>  <PUBCHEM_TOTAL_CHARGE>  (35) 
0

>  <PUBCHEM_HEAVY_ATOM_COUNT>  (35) 
30

>  <PUBCHEM_ATOM_DEF_STEREO_COUNT>  (35) 
0

>  <PUBCHEM_ATOM_UDEF_STEREO_COUNT>  (35) 
0

>  <PUBCHEM_BOND_DEF_STEREO_COUNT>  (35) 
0

>  <PUBCHEM_BOND_UDEF_STEREO_COUNT>  (35) 
0

>  <PUBCHEM_ISOTOPIC_ATOM_COUNT>  (35) 
0

>  <PUBCHEM_COMPONENT_COUNT>  (35) 
1

>  <PUBCHEM_CACTVS_TAUTO_COUNT>  (35) 
-1

>  <PUBCHEM_COORDINATE_TYPE>  (35) 
1
5
255

>  <PUBCHEM_BONDANNOTATIONS>  (35) 
14  17  8
16  23  8
16  24  8
17  25  8
17  26  8
2  25  8
2  6  8
25  28  8
26  29  8
28  30  8
29  30  8
5  20  8
5  23  8
6  14  8
7  20  8
7  24  8

$$$$
5281004
     RDKit          2D

 31 35  0  0  1  0  0  0  0  0999 V2000
    9.0594   -0.5867    0.0000 O   0  0  0  0  0  0  0  0  0  0  0  0
    8.4074   -2.0478    0.0000 O   0  0  0  0  0  0  0  0  0  0  0  0
    6.4739    2.6871    0.0000 O   0  0  0  0  0  0  0  0  0  0  0  0
    8.7828    1.1017    0.0000 O   0  0  0  0  0  0  0  0  0  0  0  0
   10.6092    0.2866    0.0000 O   0  0  0  0  0  0  0  0  0  0  0  0
    2.0000    3.3314    0.0000 O   0  0  0  0  0  0  0  0  0  0  0  0
    7.3399    0.1871    0.0000 C   0  0  0  0  0  0  0  0  0  0  0  0
    6.4739   -0.3129    0.0000 C   0  0  0  0  0  0  0  0  0  0  0  0
    5.6079    0.1871    0.0000 C   0  0  0  0  0  0  0  0  0  0  0  0
    8.0770   -0.4800    0.0000 C   0  0  0  0  0  0  0  0  0  0  0  0
    5.6079    1.1871    0.0000 C   0  0  0  0  0  0  0  0  0  0  0  0
    6.6831   -1.2848    0.0000 C   0  0  0  0  0  0  0  0  0  0  0  0
    7.6718   -1.3878    0.0000 C   0  0  0  0  0  0  0  0  0  0  0  0
    7.3399    1.1871    0.0000 C   0  0  0  0  0  0  0  0  0  0  0  0
    6.4739    1.6871    0.0000 C   0  0  0  0  0  0  0  0  0  0  0  0
    4.7140    1.7217    0.0000 C   0  0  0  0  0  0  0  0  0  0  0  0
    4.7140   -0.3476    0.0000 C   0  0  0  0  0  0  0  0  0  0  0  0
    8.2060    0.6871    0.0000 C   0  0  0  0  0  0  0  0  0  0  0  0
    3.8079    0.1662    0.0000 C   0  0  0  0  0  0  0  0  0  0  0  0
    3.8079    1.2079    0.0000 C   0  0  0  0  0  0  0  0  0  0  0  0
    8.8865    0.1071    0.0000 C   0  0  0  0  0  0  0  0  0  0  0  0
    9.2632   -1.5537    0.0000 C   0  0  0  0  0  0  0  0  0  0  0  0
    5.5838    2.2150    0.0000 C   0  0  0  0  0  0  0  0  0  0  0  0
    4.7390    2.8064    0.0000 C   0  0  0  0  0  0  0  0  0  0  0  0
   10.1763   -1.9612    0.0000 C   0  0  0  0  0  0  0  0  0  0  0  0
    9.7997   -0.3005    0.0000 C   0  0  0  0  0  0  0  0  0  0  0  0
    2.8641    1.7431    0.0000 C   0  0  0  0  0  0  0  0  0  0  0  0
    3.8079    3.3633    0.0000 C   0  0  0  0  0  0  0  0  0  0  0  0
    2.8641    2.8281    0.0000 C   0  0  0  0  0  0  0  0  0  0  0  0
   10.2800   -2.9558    0.0000 C   0  0  0  0  0  0  0  0  0  0  0  0
   11.1932   -3.3633    0.0000 C   0  0  0  0  0  0  0  0  0  0  0  0
  1 10  1  0
  1 22  1  0
  2 13  1  0
  2 22  1  0
 15  3  1  1
  4 21  2  0
  5 26  1  0
  6 29  2  0
  7  8  1  0
  7 10  1  0
  7 14  1  0
  7 18  1  1
  8  9  1  0
  8 12  1  1
  9 11  1  0
  9 17  1  6
 10 13  1  0
 10 21  1  1
 11 15  1  1
 11 16  1  0
 13 12  1  6
 14 15  1  0
 16 20  1  0
 16 23  1  1
 16 24  1  0
 17 19  1  0
 19 20  1  0
 20 27  2  0
 21 26  1  0
 22 25  1  0
 24 28  2  0
 25 30  1  0
 27 29  1  0
 28 29  1  0
 30 31  1  0
M  END
>  <PUBCHEM_COMPOUND_CID>  (36) 
5281004

>  <PUBCHEM_COMPOUND_CANONICALIZED>  (36) 
1

>  <PUBCHEM_CACTVS_COMPLEXITY>  (36) 
862

>  <PUBCHEM_CACTVS_HBOND_ACCEPTOR>  (36) 
6

>  <PUBCHEM_CACTVS_HBOND_DONOR>  (36) 
2

>  <PUBCHEM_CACTVS_ROTATABLE_BOND>  (36) 
4

>  <PUBCHEM_CACTVS_SUBSKEYS>  (36) 
AAADcfB4OAAAAAAAAAAAAAAAAAAAAaIAAAAwYIAAAAASAGDAAAAAGgAACAAAD1SwgAMCCAAABgCIAqBSAAIAAAAgAAAICAFAAEgREBYAAQQiQAAFoAAOAYPI7PzPgAAAAAAAAADAAAYAADAAAYAADCAAAA==

>  <PUBCHEM_IUPAC_OPENEYE_NAME>  (36) 
(1S,2S,4R,8S,9S,11S,12S,13R)-11-hydroxy-8-(2-hydroxyacetyl)-9,13-dimethyl-6-propyl-5,7-dioxapentacyclo[10.8.0.02,9.04,8.013,18]icosa-14,17-dien-16-one

>  <PUBCHEM_IUPAC_CAS_NAME>  (36) 
(1S,2S,4R,8S,9S,11S,12S,13R)-11-hydroxy-8-(2-hydroxy-1-oxoethyl)-9,13-dimethyl-6-propyl-5,7-dioxapentacyclo[10.8.0.02,9.04,8.013,18]eicosa-14,17-dien-16-one

>  <PUBCHEM_IUPAC_NAME_MARKUP>  (36) 
(1<I>S</I>,2<I>S</I>,4<I>R</I>,8<I>S</I>,9<I>S</I>,11<I>S</I>,12<I>S</I>,13<I>R</I>)-11-hydroxy-8-(2-hydroxyacetyl)-9,13-dimethyl-6-propyl-5,7-dioxapentacyclo[10.8.0.0<SUP>2,9</SUP>.0<SUP>4,8</SUP>.0<SUP>13,18</SUP>]icosa-14,17-dien-16-one

>  <PUBCHEM_IUPAC_NAME>  (36) 
(1S,2S,4R,8S,9S,11S,12S,13R)-11-hydroxy-8-(2-hydroxyacetyl)-9,13-dimethyl-6-propyl-5,7-dioxapentacyclo[10.8.0.02,9.04,8.013,18]icosa-14,17-dien-16-one

>  <PUBCHEM_IUPAC_SYSTEMATIC_NAME>  (36) 
(1S,2S,4R,8S,9S,11S,12S,13R)-9,13-dimethyl-11-oxidanyl-8-(2-oxidanylethanoyl)-6-propyl-5,7-dioxapentacyclo[10.8.0.02,9.04,8.013,18]icosa-14,17-dien-16-one

>  <PUBCHEM_IUPAC_TRADITIONAL_NAME>  (36) 
(1S,2S,4R,8S,9S,11S,12S,13R)-8-glycoloyl-11-hydroxy-9,13-dimethyl-6-propyl-5,7-dioxapentacyclo[10.8.0.02,9.04,8.013,18]eicosa-14,17-dien-16-one

>  <PUBCHEM_IUPAC_INCHI>  (36) 
InChI=1S/C25H34O6/c1-4-5-21-30-20-11-17-16-7-6-14-10-15(27)8-9-23(14,2)22(16)18(28)12-24(17,3)25(20,31-21)19(29)13-26/h8-10,16-18,20-22,26,28H,4-7,11-13H2,1-3H3/t16-,17-,18-,20+,21?,22+,23-,24-,25+/m0/s1

>  <PUBCHEM_IUPAC_INCHIKEY>  (36) 
VOVIALXJUBGFJZ-KWVAZRHASA-N

>  <PUBCHEM_XLOGP3_AA>  (36) 
2.5

>  <PUBCHEM_EXACT_MASS>  (36) 
430.23553880

>  <PUBCHEM_MOLECULAR_FORMULA>  (36) 
C25H34O6

>  <PUBCHEM_MOLECULAR_WEIGHT>  (36) 
430.5

>  <PUBCHEM_SMILES>  (36) 
CCCC1O[C@@H]2C[C@H]3[C@@H]4CCC5=CC(=O)C=C[C@@]5([C@H]4[C@H](C[C@@]3([C@@]2(O1)C(=O)CO)C)O)C

>  <PUBCHEM_CONNECTIVITY_SMILES>  (36) 
CCCC1OC2CC3C4CCC5=CC(=O)C=CC5(C4C(CC3(C2(O1)C(=O)CO)C)O)C

>  <PUBCHEM_CACTVS_TPSA>  (36) 
93.1

>  <PUBCHEM_MONOISOTOPIC_WEIGHT>  (36) 
430.23553880

>  <PUBCHEM_TOTAL_CHARGE>  (36) 
0

>  <PUBCHEM_HEAVY_ATOM_COUNT>  (36) 
31

>  <PUBCHEM_ATOM_DEF_STEREO_COUNT>  (36) 
8

>  <PUBCHEM_ATOM_UDEF_STEREO_COUNT>  (36) 
1

>  <PUBCHEM_BOND_DEF_STEREO_COUNT>  (36) 
0

>  <PUBCHEM_BOND_UDEF_STEREO_COUNT>  (36) 
0

>  <PUBCHEM_ISOTOPIC_ATOM_COUNT>  (36) 
0

>  <PUBCHEM_COMPONENT_COUNT>  (36) 
1

>  <PUBCHEM_CACTVS_TAUTO_COUNT>  (36) 
-1

>  <PUBCHEM_COORDINATE_TYPE>  (36) 
1
5
255

>  <PUBCHEM_BONDANNOTATIONS>  (36) 
10  21  5
11  34  6
13  37  5
16  23  5
22  48  3
15  3  5
7  18  5
8  32  6
9  33  5

$$$$
5281040
     RDKit          2D

 41 45  0  0  1  0  0  0  0  0999 V2000
    2.0000   -1.7742    0.0000 Cl  0  0  0  0  0  0  0  0  0  0  0  0
   12.4583   -1.7500    0.0000 S   0  0  0  0  0  0  0  0  0  0  0  0
   16.7885   -1.2500    0.0000 O   0  0  0  0  0  0  0  0  0  0  0  0
   15.9224   -2.7500    0.0000 O   0  0  0  0  0  0  0  0  0  0  0  0
   10.2263    2.1160    0.0000 O   0  0  0  0  0  0  0  0  0  0  0  0
    5.5301   -1.7500    0.0000 N   0  0  0  0  0  0  0  0  0  0  0  0
   14.1904   -1.7500    0.0000 C   0  0  0  0  0  0  0  0  0  0  0  0
   14.6904   -2.6160    0.0000 C   0  0  0  0  0  0  0  0  0  0  0  0
   13.6904   -2.6160    0.0000 C   0  0  0  0  0  0  0  0  0  0  0  0
   13.3244   -1.2500    0.0000 C   0  0  0  0  0  0  0  0  0  0  0  0
   15.0564   -1.2500    0.0000 C   0  0  0  0  0  0  0  0  0  0  0  0
   15.9224   -1.7500    0.0000 C   0  0  0  0  0  0  0  0  0  0  0  0
   11.5923   -1.2500    0.0000 C   0  0  0  0  0  0  0  0  0  0  0  0
   11.5923   -0.2500    0.0000 C   0  0  0  0  0  0  0  0  0  0  0  0
   10.7263   -1.7500    0.0000 C   0  0  0  0  0  0  0  0  0  0  0  0
   12.4583    0.2500    0.0000 C   0  0  0  0  0  0  0  0  0  0  0  0
    9.8603   -1.2500    0.0000 C   0  0  0  0  0  0  0  0  0  0  0  0
   10.7263   -2.7500    0.0000 C   0  0  0  0  0  0  0  0  0  0  0  0
   12.4583    1.2500    0.0000 C   0  0  0  0  0  0  0  0  0  0  0  0
   11.5923    1.7500    0.0000 C   0  0  0  0  0  0  0  0  0  0  0  0
    8.9942   -1.7500    0.0000 C   0  0  0  0  0  0  0  0  0  0  0  0
    9.8603   -3.2500    0.0000 C   0  0  0  0  0  0  0  0  0  0  0  0
   10.7263    1.2500    0.0000 C   0  0  0  0  0  0  0  0  0  0  0  0
   13.3244    1.7500    0.0000 C   0  0  0  0  0  0  0  0  0  0  0  0
    8.9942   -2.7500    0.0000 C   0  0  0  0  0  0  0  0  0  0  0  0
   11.5923    2.7500    0.0000 C   0  0  0  0  0  0  0  0  0  0  0  0
   13.3244    2.7500    0.0000 C   0  0  0  0  0  0  0  0  0  0  0  0
    8.1282   -1.2500    0.0000 C   0  0  0  0  0  0  0  0  0  0  0  0
    9.8603    0.7500    0.0000 C   0  0  0  0  0  0  0  0  0  0  0  0
   11.2263    0.3840    0.0000 C   0  0  0  0  0  0  0  0  0  0  0  0
   12.4583    3.2500    0.0000 C   0  0  0  0  0  0  0  0  0  0  0  0
    7.2622   -1.7500    0.0000 C   0  0  0  0  0  0  0  0  0  0  0  0
    6.3962   -1.2500    0.0000 C   0  0  0  0  0  0  0  0  0  0  0  0
    6.3962   -0.2500    0.0000 C   0  0  0  0  0  0  0  0  0  0  0  0
    4.6641   -1.2500    0.0000 C   0  0  0  0  0  0  0  0  0  0  0  0
    5.5301    0.2500    0.0000 C   0  0  0  0  0  0  0  0  0  0  0  0
    4.6641   -0.2500    0.0000 C   0  0  0  0  0  0  0  0  0  0  0  0
    3.7702   -1.7847    0.0000 C   0  0  0  0  0  0  0  0  0  0  0  0
    3.7702    0.2847    0.0000 C   0  0  0  0  0  0  0  0  0  0  0  0
    2.8641   -1.2708    0.0000 C   0  0  0  0  0  0  0  0  0  0  0  0
    2.8641   -0.2292    0.0000 C   0  0  0  0  0  0  0  0  0  0  0  0
  1 40  1  0
  2 10  1  0
  2 13  1  0
  3 12  1  0
  4 12  2  0
  5 23  1  0
  6 33  2  0
  6 35  1  0
  7  8  1  0
  7  9  1  0
  7 10  1  0
  7 11  1  0
  8  9  1  0
 11 12  1  0
 13 14  1  1
 13 15  1  0
 14 16  1  0
 15 17  2  0
 15 18  1  0
 16 19  1  0
 17 21  1  0
 18 22  2  0
 19 20  2  0
 19 24  1  0
 20 23  1  0
 20 26  1  0
 21 25  2  0
 21 28  1  0
 22 25  1  0
 23 29  1  0
 23 30  1  0
 24 27  2  0
 26 31  2  0
 27 31  1  0
 28 32  2  0
 32 33  1  0
 33 34  1  0
 34 36  2  0
 35 37  2  0
 35 38  1  0
 36 37  1  0
 37 39  1  0
 38 40  2  0
 39 41  2  0
 40 41  1  0
M  END
>  <PUBCHEM_COMPOUND_CID>  (37) 
5281040

>  <PUBCHEM_COMPOUND_CANONICALIZED>  (37) 
1

>  <PUBCHEM_CACTVS_COMPLEXITY>  (37) 
891

>  <PUBCHEM_CACTVS_HBOND_ACCEPTOR>  (37) 
5

>  <PUBCHEM_CACTVS_HBOND_DONOR>  (37) 
2

>  <PUBCHEM_CACTVS_ROTATABLE_BOND>  (37) 
12

>  <PUBCHEM_CACTVS_SUBSKEYS>  (37) 
AAADcfB+MABEAAAAAAAAAAAAGAAAAAAAAAA8YMEAAAAAAACx9AAAHgYACAAADk6F3iCyyPIIEgioAyTyTACCgCAhBzAImCEwbpgIJvLhk5GEcAhkwAHo2AeYwOAPhAACAAISAAAIAAQABCQAAAAAAAAAAA==

>  <PUBCHEM_IUPAC_OPENEYE_NAME>  (37) 
2-[1-[[(1R)-1-[3-[(E)-2-(7-chloro-2-quinolyl)vinyl]phenyl]-3-[2-(1-hydroxy-1-methyl-ethyl)phenyl]propyl]sulfanylmethyl]cyclopropyl]acetic acid

>  <PUBCHEM_IUPAC_CAS_NAME>  (37) 
2-[1-[[[(1R)-1-[3-[(E)-2-(7-chloro-2-quinolinyl)ethenyl]phenyl]-3-[2-(2-hydroxypropan-2-yl)phenyl]propyl]thio]methyl]cyclopropyl]acetic acid

>  <PUBCHEM_IUPAC_NAME_MARKUP>  (37) 
2-[1-[[(1<I>R</I>)-1-[3-[(<I>E</I>)-2-(7-chloroquinolin-2-yl)ethenyl]phenyl]-3-[2-(2-hydroxypropan-2-yl)phenyl]propyl]sulfanylmethyl]cyclopropyl]acetic acid

>  <PUBCHEM_IUPAC_NAME>  (37) 
2-[1-[[(1R)-1-[3-[(E)-2-(7-chloroquinolin-2-yl)ethenyl]phenyl]-3-[2-(2-hydroxypropan-2-yl)phenyl]propyl]sulfanylmethyl]cyclopropyl]acetic acid

>  <PUBCHEM_IUPAC_SYSTEMATIC_NAME>  (37) 
2-[1-[[(1R)-1-[3-[(E)-2-(7-chloranylquinolin-2-yl)ethenyl]phenyl]-3-[2-(2-oxidanylpropan-2-yl)phenyl]propyl]sulfanylmethyl]cyclopropyl]ethanoic acid

>  <PUBCHEM_IUPAC_TRADITIONAL_NAME>  (37) 
2-[1-[[[(1R)-1-[3-[(E)-2-(7-chloro-2-quinolyl)vinyl]phenyl]-3-[2-(1-hydroxy-1-methyl-ethyl)phenyl]propyl]thio]methyl]cyclopropyl]acetic acid

>  <PUBCHEM_IUPAC_INCHI>  (37) 
InChI=1S/C35H36ClNO3S/c1-34(2,40)30-9-4-3-7-25(30)13-17-32(41-23-35(18-19-35)22-33(38)39)27-8-5-6-24(20-27)10-15-29-16-12-26-11-14-28(36)21-31(26)37-29/h3-12,14-16,20-21,32,40H,13,17-19,22-23H2,1-2H3,(H,38,39)/b15-10+/t32-/m1/s1

>  <PUBCHEM_IUPAC_INCHIKEY>  (37) 
UCHDWCPVSPXUMX-TZIWLTJVSA-N

>  <PUBCHEM_XLOGP3_AA>  (37) 
7.7

>  <PUBCHEM_EXACT_MASS>  (37) 
585.2104429

>  <PUBCHEM_MOLECULAR_FORMULA>  (37) 
C35H36ClNO3S

>  <PUBCHEM_MOLECULAR_WEIGHT>  (37) 
586.2

>  <PUBCHEM_SMILES>  (37) 
CC(C)(C1=CC=CC=C1CC[C@H](C2=CC=CC(=C2)/C=C/C3=NC4=C(C=CC(=C4)Cl)C=C3)SCC5(CC5)CC(=O)O)O

>  <PUBCHEM_CONNECTIVITY_SMILES>  (37) 
CC(C)(C1=CC=CC=C1CCC(C2=CC=CC(=C2)C=CC3=NC4=C(C=CC(=C4)Cl)C=C3)SCC5(CC5)CC(=O)O)O

>  <PUBCHEM_CACTVS_TPSA>  (37) 
95.7

>  <PUBCHEM_MONOISOTOPIC_WEIGHT>  (37) 
585.2104429

>  <PUBCHEM_TOTAL_CHARGE>  (37) 
0

>  <PUBCHEM_HEAVY_ATOM_COUNT>  (37) 
41

>  <PUBCHEM_ATOM_DEF_STEREO_COUNT>  (37) 
1

>  <PUBCHEM_ATOM_UDEF_STEREO_COUNT>  (37) 
0

>  <PUBCHEM_BOND_DEF_STEREO_COUNT>  (37) 
1

>  <PUBCHEM_BOND_UDEF_STEREO_COUNT>  (37) 
0

>  <PUBCHEM_ISOTOPIC_ATOM_COUNT>  (37) 
0

>  <PUBCHEM_COMPONENT_COUNT>  (37) 
1

>  <PUBCHEM_CACTVS_TAUTO_COUNT>  (37) 
-1

>  <PUBCHEM_COORDINATE_TYPE>  (37) 
1
5
255

>  <PUBCHEM_BONDANNOTATIONS>  (37) 
13  14  5
15  17  8
15  18  8
17  21  8
18  22  8
19  20  8
19  24  8
20  26  8
21  25  8
22  25  8
24  27  8
26  31  8
27  31  8
33  34  8
34  36  8
35  37  8
35  38  8
36  37  8
37  39  8
38  40  8
39  41  8
40  41  8
6  33  8
6  35  8

$$$$
5284379
     RDKit          2D

 36 37  0  0  1  0  0  0  0  0999 V2000
    7.5602    0.0000    0.0000 Cl  0  0  0  0  0  0  0  0  0  0  0  0
    0.0000    6.2212    0.0000 Cl  0  0  0  0  0  0  0  0  0  0  0  0
    6.7177    8.8224    0.0000 S   0  0  0  0  0  0  0  0  0  0  0  0
    9.6135    6.8338    0.0000 O   0  0  0  0  0  0  0  0  0  0  0  0
    8.4497    8.8224    0.0000 O   0  0  0  0  0  0  0  0  0  0  0  0
    9.4324    5.1112    0.0000 O   0  0  0  0  0  0  0  0  0  0  0  0
    5.6350    7.6200    0.0000 N   0  0  0  0  0  0  0  0  0  0  0  0
    3.9030    4.6200    0.0000 N   0  0  0  0  0  0  0  0  0  0  0  0
    5.6350    4.6200    0.0000 N   0  0  0  0  0  0  0  0  0  0  0  0
    3.0369    6.1200    0.0000 N   0  0  0  0  0  0  0  0  0  0  0  0
    7.2177    7.9564    0.0000 C   0  0  0  0  0  0  0  0  0  0  0  0
    6.5486    7.2133    0.0000 C   0  0  0  0  0  0  0  0  0  0  0  0
    5.7395    8.6145    0.0000 C   0  0  0  0  0  0  0  0  0  0  0  0
    8.2122    7.8519    0.0000 C   0  0  0  0  0  0  0  0  0  0  0  0
    4.7690    7.1200    0.0000 C   0  0  0  0  0  0  0  0  0  0  0  0
    7.5837    9.3224    0.0000 C   0  0  0  0  0  0  0  0  0  0  0  0
    6.7565    6.2351    0.0000 C   0  0  0  0  0  0  0  0  0  0  0  0
    8.6190    6.9383    0.0000 C   0  0  0  0  0  0  0  0  0  0  0  0
    4.7690    6.1200    0.0000 C   0  0  0  0  0  0  0  0  0  0  0  0
    7.5837   10.3224    0.0000 C   0  0  0  0  0  0  0  0  0  0  0  0
    3.9030    5.6200    0.0000 C   0  0  0  0  0  0  0  0  0  0  0  0
    5.6350    5.6200    0.0000 C   0  0  0  0  0  0  0  0  0  0  0  0
    8.4497   10.8224    0.0000 C   0  0  0  0  0  0  0  0  0  0  0  0
    6.7177   10.8224    0.0000 C   0  0  0  0  0  0  0  0  0  0  0  0
    8.4497   11.8224    0.0000 C   0  0  0  0  0  0  0  0  0  0  0  0
    6.7177   11.8224    0.0000 C   0  0  0  0  0  0  0  0  0  0  0  0
   10.0202    5.9203    0.0000 C   0  0  0  0  0  0  0  0  0  0  0  0
    4.7690    4.1200    0.0000 C   0  0  0  0  0  0  0  0  0  0  0  0
    7.5837   12.3224    0.0000 C   0  0  0  0  0  0  0  0  0  0  0  0
   11.0147    5.8157    0.0000 C   0  0  0  0  0  0  0  0  0  0  0  0
    4.7690    3.1200    0.0000 C   0  0  0  0  0  0  0  0  0  0  0  0
   11.4215    4.9022    0.0000 C   0  0  0  0  0  0  0  0  0  0  0  0
   11.6025    6.6248    0.0000 C   0  0  0  0  0  0  0  0  0  0  0  0
   12.4160    4.7977    0.0000 C   0  0  0  0  0  0  0  0  0  0  0  0
   12.5970    6.5202    0.0000 C   0  0  0  0  0  0  0  0  0  0  0  0
   13.0038    5.6067    0.0000 C   0  0  0  0  0  0  0  0  0  0  0  0
  3 11  1  0
  3 13  1  0
  3 16  1  0
  4 18  1  0
  4 27  1  0
  5 16  2  0
  6 27  2  0
  7 12  1  0
  7 13  2  0
  7 15  1  0
  8 21  2  0
  8 28  1  0
  9 22  1  0
  9 28  2  0
 10 21  1  0
 11 12  2  0
 11 14  1  0
 12 17  1  0
 14 18  1  0
 15 19  1  0
 16 20  1  0
 19 21  1  0
 19 22  2  0
 20 23  2  0
 20 24  1  0
 23 25  1  0
 24 26  2  0
 25 29  2  0
 26 29  1  0
 27 30  1  0
 28 31  1  0
 30 32  2  0
 30 33  1  0
 32 34  1  0
 33 35  2  0
 34 36  2  0
 35 36  1  0
M  CHG  2   2  -1   7   1
M  END
>  <PUBCHEM_COMPOUND_CID>  (38) 
5284379

>  <PUBCHEM_COMPOUND_CANONICALIZED>  (38) 
1

>  <PUBCHEM_CACTVS_COMPLEXITY>  (38) 
802

>  <PUBCHEM_CACTVS_HBOND_ACCEPTOR>  (38) 
8

>  <PUBCHEM_CACTVS_HBOND_DONOR>  (38) 
3

>  <PUBCHEM_CACTVS_ROTATABLE_BOND>  (38) 
9

>  <PUBCHEM_CACTVS_SUBSKEYS>  (38) 
AAADceB7sABGAAAAAAAAAAAAAAAAAQAAAAA8YIAAAAAAAAAB0AAAHgQQAAAADAjh2wa/uJdIFAyoAjb3bACCkCk1ALAJ2CE4TNiILrLgfViGNQgswAPoqaeIyCCOAAAAAAAAAAAAAAAAAAAAAAAAAAAAAA==

>  <PUBCHEM_IUPAC_OPENEYE_NAME>  (38) 
2-[3-[(4-amino-2-methyl-pyrimidin-5-yl)methyl]-1-benzoyl-4-methyl-thiazol-3-ium-5-yl]ethyl benzoate;chloride;hydrochloride

>  <PUBCHEM_IUPAC_CAS_NAME>  (38) 
benzoic acid 2-[3-[(4-amino-2-methyl-5-pyrimidinyl)methyl]-1-benzoyl-4-methyl-5-thiazol-3-iumyl]ethyl ester;chloride;hydrochloride

>  <PUBCHEM_IUPAC_NAME_MARKUP>  (38) 
2-[3-[(4-amino-2-methylpyrimidin-5-yl)methyl]-1-benzoyl-4-methyl-1,3-thiazol-3-ium-5-yl]ethyl benzoate;chloride;hydrochloride

>  <PUBCHEM_IUPAC_NAME>  (38) 
2-[3-[(4-amino-2-methylpyrimidin-5-yl)methyl]-1-benzoyl-4-methyl-1,3-thiazol-3-ium-5-yl]ethyl benzoate;chloride;hydrochloride

>  <PUBCHEM_IUPAC_SYSTEMATIC_NAME>  (38) 
2-[3-[(4-azanyl-2-methyl-pyrimidin-5-yl)methyl]-4-methyl-1-(phenylcarbonyl)-1,3-thiazol-3-ium-5-yl]ethyl benzoate;chloride;hydrochloride

>  <PUBCHEM_IUPAC_TRADITIONAL_NAME>  (38) 
benzoic acid 2-[3-[(4-amino-2-methyl-pyrimidin-5-yl)methyl]-1-benzoyl-4-methyl-thiazol-3-ium-5-yl]ethyl ester;chloride;hydrochloride

>  <PUBCHEM_IUPAC_INCHI>  (38) 
InChI=1S/C26H27N4O3S.2ClH/c1-18-23(13-14-33-25(31)20-9-5-3-6-10-20)34(26(32)21-11-7-4-8-12-21)17-30(18)16-22-15-28-19(2)29-24(22)27;;/h3-12,15,17,34H,13-14,16H2,1-2H3,(H2,27,28,29);2*1H/q+1;;/p-1

>  <PUBCHEM_IUPAC_INCHIKEY>  (38) 
PZANUDOMIQFNQA-UHFFFAOYSA-M

>  <PUBCHEM_EXACT_MASS>  (38) 
546.1259173

>  <PUBCHEM_MOLECULAR_FORMULA>  (38) 
C26H28Cl2N4O3S

>  <PUBCHEM_MOLECULAR_WEIGHT>  (38) 
547.5

>  <PUBCHEM_SMILES>  (38) 
CC1=C(S(C=[N+]1CC2=CN=C(N=C2N)C)C(=O)C3=CC=CC=C3)CCOC(=O)C4=CC=CC=C4.Cl.[Cl-]

>  <PUBCHEM_CONNECTIVITY_SMILES>  (38) 
CC1=C(S(C=[N+]1CC2=CN=C(N=C2N)C)C(=O)C3=CC=CC=C3)CCOC(=O)C4=CC=CC=C4.Cl.[Cl-]

>  <PUBCHEM_CACTVS_TPSA>  (38) 
99.2

>  <PUBCHEM_MONOISOTOPIC_WEIGHT>  (38) 
546.1259173

>  <PUBCHEM_TOTAL_CHARGE>  (38) 
0

>  <PUBCHEM_HEAVY_ATOM_COUNT>  (38) 
36

>  <PUBCHEM_ATOM_DEF_STEREO_COUNT>  (38) 
0

>  <PUBCHEM_ATOM_UDEF_STEREO_COUNT>  (38) 
0

>  <PUBCHEM_BOND_DEF_STEREO_COUNT>  (38) 
0

>  <PUBCHEM_BOND_UDEF_STEREO_COUNT>  (38) 
0

>  <PUBCHEM_ISOTOPIC_ATOM_COUNT>  (38) 
0

>  <PUBCHEM_COMPONENT_COUNT>  (38) 
3

>  <PUBCHEM_CACTVS_TAUTO_COUNT>  (38) 
-1

>  <PUBCHEM_COORDINATE_TYPE>  (38) 
1
5
255

>  <PUBCHEM_BONDANNOTATIONS>  (38) 
19  21  8
19  22  8
20  23  8
20  24  8
23  25  8
24  26  8
25  29  8
26  29  8
30  32  8
30  33  8
32  34  8
33  35  8
34  36  8
35  36  8
8  21  8
8  28  8
9  22  8
9  28  8

$$$$
5284569
     RDKit          2D

 22 26  0  0  1  0  0  0  0  0999 V2000
    2.2314   -0.4472    0.0000 O   0  0  0  0  0  0  0  0  0  0  0  0
    2.0000   -2.9022    0.0000 O   0  0  0  0  0  0  0  0  0  0  0  0
    2.0000    1.9022    0.0000 O   0  0  0  0  0  0  0  0  0  0  0  0
    6.1607   -1.4511    0.0000 N   0  0  0  0  0  0  0  0  0  0  0  0
    3.6897   -0.9755    0.0000 C   0  0  0  0  0  0  0  0  0  0  0  0
    4.5133   -1.4511    0.0000 C   0  0  0  0  0  0  0  0  0  0  0  0
    5.3370   -0.9755    0.0000 C   0  0  0  0  0  0  0  0  0  0  0  0
    2.8660   -1.4511    0.0000 C   0  0  0  0  0  0  0  0  0  0  0  0
    4.2392   -0.2781    0.0000 C   0  0  0  0  0  0  0  0  0  0  0  0
    3.6897   -0.0245    0.0000 C   0  0  0  0  0  0  0  0  0  0  0  0
    4.5133   -2.4022    0.0000 C   0  0  0  0  0  0  0  0  0  0  0  0
    5.3370   -0.0245    0.0000 C   0  0  0  0  0  0  0  0  0  0  0  0
    5.5918   -0.2781    0.0000 C   0  0  0  0  0  0  0  0  0  0  0  0
    4.5133    0.4511    0.0000 C   0  0  0  0  0  0  0  0  0  0  0  0
    3.6897   -2.8777    0.0000 C   0  0  0  0  0  0  0  0  0  0  0  0
    2.8660   -2.4022    0.0000 C   0  0  0  0  0  0  0  0  0  0  0  0
    2.8660    0.4511    0.0000 C   0  0  0  0  0  0  0  0  0  0  0  0
    6.8418   -2.1832    0.0000 C   0  0  0  0  0  0  0  0  0  0  0  0
    4.5133    1.4022    0.0000 C   0  0  0  0  0  0  0  0  0  0  0  0
    2.8660    1.4022    0.0000 C   0  0  0  0  0  0  0  0  0  0  0  0
    3.6897    1.8777    0.0000 C   0  0  0  0  0  0  0  0  0  0  0  0
    2.0000    2.9022    0.0000 C   0  0  0  0  0  0  0  0  0  0  0  0
  8  1  1  6
  1 17  1  0
  2 16  2  0
  3 20  1  0
  3 22  1  0
  4  7  1  0
  4 13  1  0
  4 18  1  0
  5  6  1  0
  5  8  1  0
  5  9  1  1
  5 10  1  0
  6  7  1  0
  6 11  1  6
  7 12  1  1
  8 16  1  0
  9 13  1  0
 10 14  2  0
 10 17  1  0
 11 15  1  0
 12 14  1  0
 14 19  1  0
 15 16  1  0
 17 20  2  0
 19 21  2  0
 20 21  1  0
M  END
>  <PUBCHEM_COMPOUND_CID>  (39) 
5284569

>  <PUBCHEM_COMPOUND_CANONICALIZED>  (39) 
1

>  <PUBCHEM_CACTVS_COMPLEXITY>  (39) 
509

>  <PUBCHEM_CACTVS_HBOND_ACCEPTOR>  (39) 
4

>  <PUBCHEM_CACTVS_HBOND_DONOR>  (39) 
0

>  <PUBCHEM_CACTVS_ROTATABLE_BOND>  (39) 
1

>  <PUBCHEM_CACTVS_SUBSKEYS>  (39) 
AAADceB6MAAAAAAAAAAAAAAAAAAAASAAAAA8YMEAAAAWAEjxAAAAHgAAAAAADzzhmAYyBoMABACIAqBSAAICCAAgIAAIiAFOiIgNJjKEsR+GOCKkwBGKqAe4/f/foAABAAAYQADQAAaAADSAAAAAAAAAAA==

>  <PUBCHEM_IUPAC_OPENEYE_NAME>  (39) 
(4R,4aR,7aR,12bS)-9-methoxy-3-methyl-1,2,4,4a,5,6,7a,13-octahydro-4,12-methanobenzofuro[3,2-e]isoquinolin-7-one

>  <PUBCHEM_IUPAC_CAS_NAME>  (39) 
(4R,4aR,7aR,12bS)-9-methoxy-3-methyl-1,2,4,4a,5,6,7a,13-octahydro-4,12-methanobenzofuro[3,2-e]isoquinolin-7-one

>  <PUBCHEM_IUPAC_NAME_MARKUP>  (39) 
(4<I>R</I>,4<I>a</I><I>R</I>,7<I>a</I><I>R</I>,12<I>b</I><I>S</I>)-9-methoxy-3-methyl-1,2,4,4<I>a</I>,5,6,7<I>a</I>,13-octahydro-4,12-methanobenzofuro[3,2-e]isoquinolin-7-one

>  <PUBCHEM_IUPAC_NAME>  (39) 
(4R,4aR,7aR,12bS)-9-methoxy-3-methyl-1,2,4,4a,5,6,7a,13-octahydro-4,12-methanobenzofuro[3,2-e]isoquinolin-7-one

>  <PUBCHEM_IUPAC_SYSTEMATIC_NAME>  (39) 
(4R,4aR,7aR,12bS)-9-methoxy-3-methyl-1,2,4,4a,5,6,7a,13-octahydro-4,12-methanobenzofuro[3,2-e]isoquinolin-7-one

>  <PUBCHEM_IUPAC_TRADITIONAL_NAME>  (39) 
(4R,4aR,7aR,12bS)-9-methoxy-3-methyl-1,2,4,4a,5,6,7a,13-octahydro-4,12-methanobenzofuro[3,2-e]isoquinolin-7-one

>  <PUBCHEM_IUPAC_INCHI>  (39) 
InChI=1S/C18H21NO3/c1-19-8-7-18-11-4-5-13(20)17(18)22-16-14(21-2)6-3-10(15(16)18)9-12(11)19/h3,6,11-12,17H,4-5,7-9H2,1-2H3/t11-,12+,17-,18-/m0/s1

>  <PUBCHEM_IUPAC_INCHIKEY>  (39) 
LLPOLZWFYMWNKH-CMKMFDCUSA-N

>  <PUBCHEM_XLOGP3_AA>  (39) 
2.2

>  <PUBCHEM_EXACT_MASS>  (39) 
299.15214353

>  <PUBCHEM_MOLECULAR_FORMULA>  (39) 
C18H21NO3

>  <PUBCHEM_MOLECULAR_WEIGHT>  (39) 
299.4

>  <PUBCHEM_SMILES>  (39) 
CN1CC[C@]23[C@@H]4[C@H]1CC5=C2C(=C(C=C5)OC)O[C@H]3C(=O)CC4

>  <PUBCHEM_CONNECTIVITY_SMILES>  (39) 
CN1CCC23C4C1CC5=C2C(=C(C=C5)OC)OC3C(=O)CC4

>  <PUBCHEM_CACTVS_TPSA>  (39) 
38.8

>  <PUBCHEM_MONOISOTOPIC_WEIGHT>  (39) 
299.15214353

>  <PUBCHEM_TOTAL_CHARGE>  (39) 
0

>  <PUBCHEM_HEAVY_ATOM_COUNT>  (39) 
22

>  <PUBCHEM_ATOM_DEF_STEREO_COUNT>  (39) 
4

>  <PUBCHEM_ATOM_UDEF_STEREO_COUNT>  (39) 
0

>  <PUBCHEM_BOND_DEF_STEREO_COUNT>  (39) 
0

>  <PUBCHEM_BOND_UDEF_STEREO_COUNT>  (39) 
0

>  <PUBCHEM_ISOTOPIC_ATOM_COUNT>  (39) 
0

>  <PUBCHEM_COMPONENT_COUNT>  (39) 
1

>  <PUBCHEM_CACTVS_TAUTO_COUNT>  (39) 
-1

>  <PUBCHEM_COORDINATE_TYPE>  (39) 
1
5
255

>  <PUBCHEM_BONDANNOTATIONS>  (39) 
10  14  8
10  17  8
14  19  8
17  20  8
19  21  8
20  21  8
5  9  5
6  23  5
7  24  6
8  25  5

$$$$
5362119
     RDKit          2D

 29 30  0  0  1  0  0  0  0  0999 V2000
    6.8671    0.9400    0.0000 O   0  0  0  0  0  0  0  0  0  0  0  0
    8.5043    3.3879    0.0000 O   0  0  0  0  0  0  0  0  0  0  0  0
    7.9690    1.7406    0.0000 O   0  0  0  0  0  0  0  0  0  0  0  0
    3.4030    0.9400    0.0000 O   0  0  0  0  0  0  0  0  0  0  0  0
    2.5369   -0.5600    0.0000 O   0  0  0  0  0  0  0  0  0  0  0  0
    6.0010    2.4400    0.0000 N   0  0  0  0  0  0  0  0  0  0  0  0
    5.1350   -0.0600    0.0000 N   0  0  0  0  0  0  0  0  0  0  0  0
    2.5369    4.4400    0.0000 N   0  0  0  0  0  0  0  0  0  0  0  0
    6.8101    3.0278    0.0000 C   0  0  0  0  0  0  0  0  0  0  0  0
    6.5010    3.9788    0.0000 C   0  0  0  0  0  0  0  0  0  0  0  0
    5.1920    3.0278    0.0000 C   0  0  0  0  0  0  0  0  0  0  0  0
    5.5010    3.9788    0.0000 C   0  0  0  0  0  0  0  0  0  0  0  0
    5.1350    0.9400    0.0000 C   0  0  0  0  0  0  0  0  0  0  0  0
    6.0010    1.4400    0.0000 C   0  0  0  0  0  0  0  0  0  0  0  0
    4.2690    1.4400    0.0000 C   0  0  0  0  0  0  0  0  0  0  0  0
    4.2690   -0.5600    0.0000 C   0  0  0  0  0  0  0  0  0  0  0  0
    4.2690    2.4400    0.0000 C   0  0  0  0  0  0  0  0  0  0  0  0
    7.7611    2.7188    0.0000 C   0  0  0  0  0  0  0  0  0  0  0  0
    4.2690   -1.5600    0.0000 C   0  0  0  0  0  0  0  0  0  0  0  0
    3.4030    2.9400    0.0000 C   0  0  0  0  0  0  0  0  0  0  0  0
    3.4030   -2.0600    0.0000 C   0  0  0  0  0  0  0  0  0  0  0  0
    3.4030   -0.0600    0.0000 C   0  0  0  0  0  0  0  0  0  0  0  0
    3.4030    3.9400    0.0000 C   0  0  0  0  0  0  0  0  0  0  0  0
    3.4030   -3.0600    0.0000 C   0  0  0  0  0  0  0  0  0  0  0  0
    2.5369   -3.5600    0.0000 C   0  0  0  0  0  0  0  0  0  0  0  0
    4.2690   -3.5600    0.0000 C   0  0  0  0  0  0  0  0  0  0  0  0
    2.5369   -4.5600    0.0000 C   0  0  0  0  0  0  0  0  0  0  0  0
    4.2690   -4.5600    0.0000 C   0  0  0  0  0  0  0  0  0  0  0  0
    3.4030   -5.0600    0.0000 C   0  0  0  0  0  0  0  0  0  0  0  0
  1 14  2  0
  2 18  1  0
  3 18  2  0
  4 22  1  0
  5 22  2  0
  6  9  1  0
  6 11  1  0
  6 14  1  0
 13  7  1  0
 16  7  1  0
  8 23  1  0
  9 10  1  0
  9 18  1  1
 10 12  1  0
 11 12  1  0
 13 14  1  0
 13 15  1  1
 15 17  1  0
 16 19  1  1
 16 22  1  0
 17 20  1  0
 19 21  1  0
 20 23  1  0
 21 24  1  0
 24 25  2  0
 24 26  1  0
 25 27  1  0
 26 28  2  0
 27 29  2  0
 28 29  1  0
M  END
>  <PUBCHEM_COMPOUND_CID>  (40) 
5362119

>  <PUBCHEM_COMPOUND_CANONICALIZED>  (40) 
1

>  <PUBCHEM_CACTVS_COMPLEXITY>  (40) 
550

>  <PUBCHEM_CACTVS_HBOND_ACCEPTOR>  (40) 
7

>  <PUBCHEM_CACTVS_HBOND_DONOR>  (40) 
4

>  <PUBCHEM_CACTVS_ROTATABLE_BOND>  (40) 
12

>  <PUBCHEM_CACTVS_SUBSKEYS>  (40) 
AAADceB7OAAAAAAAAAAAAAAAAAAAAWAAAAAwAAAAAAAAAAABAAAAHgAQCAAADCjBmAQwCIPAAgCIAiHSGAACAAAgAAAIiIGIAIgKYDKAkTCUYAAklgCYiAeY2bKOAAAAAAAAAAAAAAAAAAAAAAAAAAAAAA==

>  <PUBCHEM_IUPAC_OPENEYE_NAME>  (40) 
(2S)-1-[(2S)-6-amino-2-[[(1S)-1-carboxy-3-phenyl-propyl]amino]hexanoyl]pyrrolidine-2-carboxylic acid

>  <PUBCHEM_IUPAC_CAS_NAME>  (40) 
(2S)-1-[(2S)-6-amino-2-[[(1S)-1-carboxy-3-phenylpropyl]amino]-1-oxohexyl]-2-pyrrolidinecarboxylic acid

>  <PUBCHEM_IUPAC_NAME_MARKUP>  (40) 
(2<I>S</I>)-1-[(2<I>S</I>)-6-amino-2-[[(1<I>S</I>)-1-carboxy-3-phenylpropyl]amino]hexanoyl]pyrrolidine-2-carboxylic acid

>  <PUBCHEM_IUPAC_NAME>  (40) 
(2S)-1-[(2S)-6-amino-2-[[(1S)-1-carboxy-3-phenylpropyl]amino]hexanoyl]pyrrolidine-2-carboxylic acid

>  <PUBCHEM_IUPAC_SYSTEMATIC_NAME>  (40) 
(2S)-1-[(2S)-6-azanyl-2-[[(2S)-1-oxidanyl-1-oxidanylidene-4-phenyl-butan-2-yl]amino]hexanoyl]pyrrolidine-2-carboxylic acid

>  <PUBCHEM_IUPAC_TRADITIONAL_NAME>  (40) 
(2S)-1-[(2S)-6-amino-2-[[(1S)-1-carboxy-3-phenyl-propyl]amino]hexanoyl]proline

>  <PUBCHEM_IUPAC_INCHI>  (40) 
InChI=1S/C21H31N3O5/c22-13-5-4-9-16(19(25)24-14-6-10-18(24)21(28)29)23-17(20(26)27)12-11-15-7-2-1-3-8-15/h1-3,7-8,16-18,23H,4-6,9-14,22H2,(H,26,27)(H,28,29)/t16-,17-,18-/m0/s1

>  <PUBCHEM_IUPAC_INCHIKEY>  (40) 
RLAWWYSOJDYHDC-BZSNNMDCSA-N

>  <PUBCHEM_XLOGP3>  (40) 
-2.9

>  <PUBCHEM_EXACT_MASS>  (40) 
405.22637110

>  <PUBCHEM_MOLECULAR_FORMULA>  (40) 
C21H31N3O5

>  <PUBCHEM_MOLECULAR_WEIGHT>  (40) 
405.5

>  <PUBCHEM_SMILES>  (40) 
C1C[C@H](N(C1)C(=O)[C@H](CCCCN)N[C@@H](CCC2=CC=CC=C2)C(=O)O)C(=O)O

>  <PUBCHEM_CONNECTIVITY_SMILES>  (40) 
C1CC(N(C1)C(=O)C(CCCCN)NC(CCC2=CC=CC=C2)C(=O)O)C(=O)O

>  <PUBCHEM_CACTVS_TPSA>  (40) 
133

>  <PUBCHEM_MONOISOTOPIC_WEIGHT>  (40) 
405.22637110

>  <PUBCHEM_TOTAL_CHARGE>  (40) 
0

>  <PUBCHEM_HEAVY_ATOM_COUNT>  (40) 
29

>  <PUBCHEM_ATOM_DEF_STEREO_COUNT>  (40) 
3

>  <PUBCHEM_ATOM_UDEF_STEREO_COUNT>  (40) 
0

>  <PUBCHEM_BOND_DEF_STEREO_COUNT>  (40) 
0

>  <PUBCHEM_BOND_UDEF_STEREO_COUNT>  (40) 
0

>  <PUBCHEM_ISOTOPIC_ATOM_COUNT>  (40) 
0

>  <PUBCHEM_COMPONENT_COUNT>  (40) 
1

>  <PUBCHEM_CACTVS_TAUTO_COUNT>  (40) 
-1

>  <PUBCHEM_COORDINATE_TYPE>  (40) 
1
5
255

>  <PUBCHEM_BONDANNOTATIONS>  (40) 
24  25  8
24  26  8
25  27  8
26  28  8
27  29  8
28  29  8
13  7  5
16  7  5
9  18  5

$$$$
5388962
     RDKit          2D

 27 28  0  0  1  0  0  0  0  0999 V2000
    6.3301    1.4806    0.0000 O   0  0  0  0  0  0  0  0  0  0  0  0
    7.9673    3.9285    0.0000 O   0  0  0  0  0  0  0  0  0  0  0  0
    7.4321    2.2812    0.0000 O   0  0  0  0  0  0  0  0  0  0  0  0
    2.8660    1.4806    0.0000 O   0  0  0  0  0  0  0  0  0  0  0  0
    2.0000   -0.0194    0.0000 O   0  0  0  0  0  0  0  0  0  0  0  0
    5.4641    2.9806    0.0000 N   0  0  0  0  0  0  0  0  0  0  0  0
    4.5981    0.4806    0.0000 N   0  0  0  0  0  0  0  0  0  0  0  0
    6.2731    3.5684    0.0000 C   0  0  0  0  0  0  0  0  0  0  0  0
    5.9641    4.5194    0.0000 C   0  0  0  0  0  0  0  0  0  0  0  0
    4.9641    4.5194    0.0000 C   0  0  0  0  0  0  0  0  0  0  0  0
    4.6551    3.5684    0.0000 C   0  0  0  0  0  0  0  0  0  0  0  0
    5.4641    1.9806    0.0000 C   0  0  0  0  0  0  0  0  0  0  0  0
    4.5981    1.4806    0.0000 C   0  0  0  0  0  0  0  0  0  0  0  0
    7.2242    3.2594    0.0000 C   0  0  0  0  0  0  0  0  0  0  0  0
    3.7321   -0.0194    0.0000 C   0  0  0  0  0  0  0  0  0  0  0  0
    3.7321   -1.0194    0.0000 C   0  0  0  0  0  0  0  0  0  0  0  0
    3.7321    1.9806    0.0000 C   0  0  0  0  0  0  0  0  0  0  0  0
    2.8660   -1.5194    0.0000 C   0  0  0  0  0  0  0  0  0  0  0  0
    2.8660    0.4806    0.0000 C   0  0  0  0  0  0  0  0  0  0  0  0
    2.8660   -2.5194    0.0000 C   0  0  0  0  0  0  0  0  0  0  0  0
    2.0000   -3.0194    0.0000 C   0  0  0  0  0  0  0  0  0  0  0  0
    3.7321   -3.0194    0.0000 C   0  0  0  0  0  0  0  0  0  0  0  0
    2.0000    1.9806    0.0000 C   0  0  0  0  0  0  0  0  0  0  0  0
    2.0000   -4.0194    0.0000 C   0  0  0  0  0  0  0  0  0  0  0  0
    3.7321   -4.0194    0.0000 C   0  0  0  0  0  0  0  0  0  0  0  0
    2.8660   -4.5194    0.0000 C   0  0  0  0  0  0  0  0  0  0  0  0
    2.0000    2.9806    0.0000 C   0  0  0  0  0  0  0  0  0  0  0  0
  1 12  2  0
  2 14  1  0
  3 14  2  0
  4 19  1  0
  4 23  1  0
  5 19  2  0
  6  8  1  0
  6 11  1  0
  6 12  1  0
 13  7  1  0
 15  7  1  0
  8  9  1  0
  8 14  1  1
  9 10  1  0
 10 11  1  0
 12 13  1  0
 13 17  1  1
 15 16  1  1
 15 19  1  0
 16 18  1  0
 18 20  1  0
 20 21  2  0
 20 22  1  0
 21 24  1  0
 22 25  2  0
 23 27  1  0
 24 26  2  0
 25 26  1  0
M  END
>  <PUBCHEM_COMPOUND_CID>  (41) 
5388962

>  <PUBCHEM_COMPOUND_CANONICALIZED>  (41) 
1

>  <PUBCHEM_CACTVS_COMPLEXITY>  (41) 
519

>  <PUBCHEM_CACTVS_HBOND_ACCEPTOR>  (41) 
6

>  <PUBCHEM_CACTVS_HBOND_DONOR>  (41) 
2

>  <PUBCHEM_CACTVS_ROTATABLE_BOND>  (41) 
10

>  <PUBCHEM_CACTVS_SUBSKEYS>  (41) 
AAADceB7OAAAAAAAAAAAAAAAAAAAAWAAAAAwAAAAAAAAAAABAAAAHgAQCAAADCjhmAYyCIPABgCIAiHSGAACAAAgAAAIiIGIAIgKYDKAkTCXYAAklgCYiAeY2bKOAAAAAAAAAAAAAAAAAAAAAAAAAAAAAA==

>  <PUBCHEM_IUPAC_OPENEYE_NAME>  (41) 
(2S)-1-[(2S)-2-[[(1S)-1-ethoxycarbonyl-3-phenyl-propyl]amino]propanoyl]pyrrolidine-2-carboxylic acid

>  <PUBCHEM_IUPAC_CAS_NAME>  (41) 
(2S)-1-[(2S)-2-[[(2S)-1-ethoxy-1-oxo-4-phenylbutan-2-yl]amino]-1-oxopropyl]-2-pyrrolidinecarboxylic acid

>  <PUBCHEM_IUPAC_NAME_MARKUP>  (41) 
(2<I>S</I>)-1-[(2<I>S</I>)-2-[[(2<I>S</I>)-1-ethoxy-1-oxo-4-phenylbutan-2-yl]amino]propanoyl]pyrrolidine-2-carboxylic acid

>  <PUBCHEM_IUPAC_NAME>  (41) 
(2S)-1-[(2S)-2-[[(2S)-1-ethoxy-1-oxo-4-phenylbutan-2-yl]amino]propanoyl]pyrrolidine-2-carboxylic acid

>  <PUBCHEM_IUPAC_SYSTEMATIC_NAME>  (41) 
(2S)-1-[(2S)-2-[[(2S)-1-ethoxy-1-oxidanylidene-4-phenyl-butan-2-yl]amino]propanoyl]pyrrolidine-2-carboxylic acid

>  <PUBCHEM_IUPAC_TRADITIONAL_NAME>  (41) 
(2S)-1-[(2S)-2-[[(1S)-1-carbethoxy-3-phenyl-propyl]amino]propanoyl]proline

>  <PUBCHEM_IUPAC_INCHI>  (41) 
InChI=1S/C20H28N2O5/c1-3-27-20(26)16(12-11-15-8-5-4-6-9-15)21-14(2)18(23)22-13-7-10-17(22)19(24)25/h4-6,8-9,14,16-17,21H,3,7,10-13H2,1-2H3,(H,24,25)/t14-,16-,17-/m0/s1

>  <PUBCHEM_IUPAC_INCHIKEY>  (41) 
GBXSMTUPTTWBMN-XIRDDKMYSA-N

>  <PUBCHEM_XLOGP3>  (41) 
-0.1

>  <PUBCHEM_EXACT_MASS>  (41) 
376.19982200

>  <PUBCHEM_MOLECULAR_FORMULA>  (41) 
C20H28N2O5

>  <PUBCHEM_MOLECULAR_WEIGHT>  (41) 
376.4

>  <PUBCHEM_SMILES>  (41) 
CCOC(=O)[C@H](CCC1=CC=CC=C1)N[C@@H](C)C(=O)N2CCC[C@H]2C(=O)O

>  <PUBCHEM_CONNECTIVITY_SMILES>  (41) 
CCOC(=O)C(CCC1=CC=CC=C1)NC(C)C(=O)N2CCCC2C(=O)O

>  <PUBCHEM_CACTVS_TPSA>  (41) 
95.9

>  <PUBCHEM_MONOISOTOPIC_WEIGHT>  (41) 
376.19982200

>  <PUBCHEM_TOTAL_CHARGE>  (41) 
0

>  <PUBCHEM_HEAVY_ATOM_COUNT>  (41) 
27

>  <PUBCHEM_ATOM_DEF_STEREO_COUNT>  (41) 
3

>  <PUBCHEM_ATOM_UDEF_STEREO_COUNT>  (41) 
0

>  <PUBCHEM_BOND_DEF_STEREO_COUNT>  (41) 
0

>  <PUBCHEM_BOND_UDEF_STEREO_COUNT>  (41) 
0

>  <PUBCHEM_ISOTOPIC_ATOM_COUNT>  (41) 
0

>  <PUBCHEM_COMPONENT_COUNT>  (41) 
1

>  <PUBCHEM_CACTVS_TAUTO_COUNT>  (41) 
-1

>  <PUBCHEM_COORDINATE_TYPE>  (41) 
1
5
255

>  <PUBCHEM_BONDANNOTATIONS>  (41) 
20  21  8
20  22  8
21  24  8
22  25  8
24  26  8
25  26  8
13  7  5
15  7  5
8  14  5

$$$$
54454
     RDKit          2D

 30 32  0  0  1  0  0  0  0  0999 V2000
    3.8660    0.5548    0.0000 O   0  0  0  0  0  0  0  0  0  0  0  0
    7.3232   -1.4997    0.0000 O   0  0  0  0  0  0  0  0  0  0  0  0
    4.7080   -2.9695    0.0000 O   0  0  0  0  0  0  0  0  0  0  0  0
    2.1340    0.5548    0.0000 O   0  0  0  0  0  0  0  0  0  0  0  0
    8.1719   -3.0096    0.0000 O   0  0  0  0  0  0  0  0  0  0  0  0
    4.7321    2.0548    0.0000 C   0  0  0  0  0  0  0  0  0  0  0  0
    5.6260    1.5202    0.0000 C   0  0  0  0  0  0  0  0  0  0  0  0
    3.8660    1.5548    0.0000 C   0  0  0  0  0  0  0  0  0  0  0  0
    6.5321    2.0340    0.0000 C   0  0  0  0  0  0  0  0  0  0  0  0
    4.7321    3.0548    0.0000 C   0  0  0  0  0  0  0  0  0  0  0  0
    5.6144    0.5202    0.0000 C   0  0  0  0  0  0  0  0  0  0  0  0
    3.0000    2.0548    0.0000 C   0  0  0  0  0  0  0  0  0  0  0  0
    3.0000    3.0548    0.0000 C   0  0  0  0  0  0  0  0  0  0  0  0
    3.8660    3.5548    0.0000 C   0  0  0  0  0  0  0  0  0  0  0  0
    6.4746    0.0102    0.0000 C   0  0  0  0  0  0  0  0  0  0  0  0
    6.5321    3.0756    0.0000 C   0  0  0  0  0  0  0  0  0  0  0  0
    5.6260    3.5895    0.0000 C   0  0  0  0  0  0  0  0  0  0  0  0
    7.3962    1.5307    0.0000 C   0  0  0  0  0  0  0  0  0  0  0  0
    6.4631   -0.9897    0.0000 C   0  0  0  0  0  0  0  0  0  0  0  0
    2.1340    3.5548    0.0000 C   0  0  0  0  0  0  0  0  0  0  0  0
    5.5913   -1.4796    0.0000 C   0  0  0  0  0  0  0  0  0  0  0  0
    3.0000    0.0548    0.0000 C   0  0  0  0  0  0  0  0  0  0  0  0
    5.5797   -2.4796    0.0000 C   0  0  0  0  0  0  0  0  0  0  0  0
    3.0000   -0.9452    0.0000 C   0  0  0  0  0  0  0  0  0  0  0  0
    6.4399   -2.9896    0.0000 C   0  0  0  0  0  0  0  0  0  0  0  0
    7.3117   -2.4996    0.0000 C   0  0  0  0  0  0  0  0  0  0  0  0
    3.0000   -1.9452    0.0000 C   0  0  0  0  0  0  0  0  0  0  0  0
    2.0000   -0.9452    0.0000 C   0  0  0  0  0  0  0  0  0  0  0  0
    4.0000   -0.9452    0.0000 C   0  0  0  0  0  0  0  0  0  0  0  0
    2.1340   -2.4452    0.0000 C   0  0  0  0  0  0  0  0  0  0  0  0
  8  1  1  1
  1 22  1  0
  2 19  1  0
  2 26  1  0
 23  3  1  6
  4 22  2  0
  5 26  2  0
  6  7  1  0
  6  8  1  0
  6 10  1  1
  7  9  1  0
  7 11  1  6
  8 12  1  0
  9 16  1  0
  9 18  1  6
 10 14  2  0
 10 17  1  0
 11 15  1  0
 12 13  1  0
 13 14  1  0
 13 20  1  1
 19 15  1  1
 16 17  2  0
 19 21  1  0
 21 23  1  0
 22 24  1  0
 23 25  1  0
 24 27  1  0
 24 28  1  0
 24 29  1  0
 25 26  1  0
 27 30  1  0
M  END
>  <PUBCHEM_COMPOUND_CID>  (42) 
54454

>  <PUBCHEM_COMPOUND_CANONICALIZED>  (42) 
1

>  <PUBCHEM_CACTVS_COMPLEXITY>  (42) 
706

>  <PUBCHEM_CACTVS_HBOND_ACCEPTOR>  (42) 
5

>  <PUBCHEM_CACTVS_HBOND_DONOR>  (42) 
1

>  <PUBCHEM_CACTVS_ROTATABLE_BOND>  (42) 
7

>  <PUBCHEM_CACTVS_SUBSKEYS>  (42) 
AAADcfB4OAAAAAAAAAAAAAAAAAAAAAAAAAAkQIAAAAAAAACAAAAAGgAACAAADxSggAICCAAABgCIAiDSCAAAAAAgAAAICAEAAAgIEBYAAQACQAAF4AAIgAOIzPDPgAAAAAAAAAAAAAAAAAAAAAAAAAAAAA==

>  <PUBCHEM_IUPAC_OPENEYE_NAME>  (42) 
[(1S,3R,7S,8S,8aR)-8-[2-[(2R,4R)-4-hydroxy-6-oxo-tetrahydropyran-2-yl]ethyl]-3,7-dimethyl-1,2,3,7,8,8a-hexahydronaphthalen-1-yl] 2,2-dimethylbutanoate

>  <PUBCHEM_IUPAC_CAS_NAME>  (42) 
2,2-dimethylbutanoic acid [(1S,3R,7S,8S,8aR)-8-[2-[(2R,4R)-4-hydroxy-6-oxo-2-oxanyl]ethyl]-3,7-dimethyl-1,2,3,7,8,8a-hexahydronaphthalen-1-yl] ester

>  <PUBCHEM_IUPAC_NAME_MARKUP>  (42) 
[(1<I>S</I>,3<I>R</I>,7<I>S</I>,8<I>S</I>,8<I>a</I><I>R</I>)-8-[2-[(2<I>R</I>,4<I>R</I>)-4-hydroxy-6-oxooxan-2-yl]ethyl]-3,7-dimethyl-1,2,3,7,8,8<I>a</I>-hexahydronaphthalen-1-yl] 2,2-dimethylbutanoate

>  <PUBCHEM_IUPAC_NAME>  (42) 
[(1S,3R,7S,8S,8aR)-8-[2-[(2R,4R)-4-hydroxy-6-oxooxan-2-yl]ethyl]-3,7-dimethyl-1,2,3,7,8,8a-hexahydronaphthalen-1-yl] 2,2-dimethylbutanoate

>  <PUBCHEM_IUPAC_SYSTEMATIC_NAME>  (42) 
[(1S,3R,7S,8S,8aR)-3,7-dimethyl-8-[2-[(2R,4R)-4-oxidanyl-6-oxidanylidene-oxan-2-yl]ethyl]-1,2,3,7,8,8a-hexahydronaphthalen-1-yl] 2,2-dimethylbutanoate

>  <PUBCHEM_IUPAC_TRADITIONAL_NAME>  (42) 
2,2-dimethylbutyric acid [(1S,3R,7S,8S,8aR)-8-[2-[(2R,4R)-4-hydroxy-6-keto-tetrahydropyran-2-yl]ethyl]-3,7-dimethyl-1,2,3,7,8,8a-hexahydronaphthalen-1-yl] ester

>  <PUBCHEM_IUPAC_INCHI>  (42) 
InChI=1S/C25H38O5/c1-6-25(4,5)24(28)30-21-12-15(2)11-17-8-7-16(3)20(23(17)21)10-9-19-13-18(26)14-22(27)29-19/h7-8,11,15-16,18-21,23,26H,6,9-10,12-14H2,1-5H3/t15-,16-,18+,19+,20-,21-,23-/m0/s1

>  <PUBCHEM_IUPAC_INCHIKEY>  (42) 
RYMZZMVNJRMUDD-HGQWONQESA-N

>  <PUBCHEM_XLOGP3>  (42) 
4.7

>  <PUBCHEM_EXACT_MASS>  (42) 
418.27192431

>  <PUBCHEM_MOLECULAR_FORMULA>  (42) 
C25H38O5

>  <PUBCHEM_MOLECULAR_WEIGHT>  (42) 
418.6

>  <PUBCHEM_SMILES>  (42) 
CCC(C)(C)C(=O)O[C@H]1C[C@H](C=C2[C@H]1[C@H]([C@H](C=C2)C)CC[C@@H]3C[C@H](CC(=O)O3)O)C

>  <PUBCHEM_CONNECTIVITY_SMILES>  (42) 
CCC(C)(C)C(=O)OC1CC(C=C2C1C(C(C=C2)C)CCC3CC(CC(=O)O3)O)C

>  <PUBCHEM_CACTVS_TPSA>  (42) 
72.8

>  <PUBCHEM_MONOISOTOPIC_WEIGHT>  (42) 
418.27192431

>  <PUBCHEM_TOTAL_CHARGE>  (42) 
0

>  <PUBCHEM_HEAVY_ATOM_COUNT>  (42) 
30

>  <PUBCHEM_ATOM_DEF_STEREO_COUNT>  (42) 
7

>  <PUBCHEM_ATOM_UDEF_STEREO_COUNT>  (42) 
0

>  <PUBCHEM_BOND_DEF_STEREO_COUNT>  (42) 
0

>  <PUBCHEM_BOND_UDEF_STEREO_COUNT>  (42) 
0

>  <PUBCHEM_ISOTOPIC_ATOM_COUNT>  (42) 
0

>  <PUBCHEM_COMPONENT_COUNT>  (42) 
1

>  <PUBCHEM_CACTVS_TAUTO_COUNT>  (42) 
-1

>  <PUBCHEM_COORDINATE_TYPE>  (42) 
1
5
255

>  <PUBCHEM_BONDANNOTATIONS>  (42) 
8  1  5
13  20  5
19  15  5
23  3  6
6  31  6
7  11  6
9  18  6

$$$$
54678486
     RDKit          2D

 23 25  0  0  1  0  0  0  0  0999 V2000
    4.6660   -2.2327    0.0000 O   0  0  0  0  0  0  0  0  0  0  0  0
    4.6660    0.7673    0.0000 O   0  0  0  0  0  0  0  0  0  0  0  0
    6.3981   -2.2327    0.0000 O   0  0  0  0  0  0  0  0  0  0  0  0
    8.1301    0.7673    0.0000 O   0  0  0  0  0  0  0  0  0  0  0  0
    6.3981   -0.2327    0.0000 C   0  0  0  0  0  0  0  0  0  0  0  0
    5.5321   -0.7327    0.0000 C   0  0  0  0  0  0  0  0  0  0  0  0
    6.3981    0.7673    0.0000 C   0  0  0  0  0  0  0  0  0  0  0  0
    7.2641   -0.7327    0.0000 C   0  0  0  0  0  0  0  0  0  0  0  0
    4.6660   -0.2327    0.0000 C   0  0  0  0  0  0  0  0  0  0  0  0
    3.8000   -0.7327    0.0000 C   0  0  0  0  0  0  0  0  0  0  0  0
    5.5321   -1.7327    0.0000 C   0  0  0  0  0  0  0  0  0  0  0  0
    7.2641    1.2673    0.0000 C   0  0  0  0  0  0  0  0  0  0  0  0
    8.1301   -0.2327    0.0000 C   0  0  0  0  0  0  0  0  0  0  0  0
    7.2641   -1.7327    0.0000 C   0  0  0  0  0  0  0  0  0  0  0  0
    3.8000   -1.7327    0.0000 C   0  0  0  0  0  0  0  0  0  0  0  0
    2.9061   -0.1980    0.0000 C   0  0  0  0  0  0  0  0  0  0  0  0
    8.9962   -0.7327    0.0000 C   0  0  0  0  0  0  0  0  0  0  0  0
    8.1301   -2.2327    0.0000 C   0  0  0  0  0  0  0  0  0  0  0  0
    2.9061   -2.2673    0.0000 C   0  0  0  0  0  0  0  0  0  0  0  0
    7.2641    2.2673    0.0000 C   0  0  0  0  0  0  0  0  0  0  0  0
    8.9962   -1.7327    0.0000 C   0  0  0  0  0  0  0  0  0  0  0  0
    2.0000   -0.7119    0.0000 C   0  0  0  0  0  0  0  0  0  0  0  0
    2.0000   -1.7535    0.0000 C   0  0  0  0  0  0  0  0  0  0  0  0
  1 11  1  0
  1 15  1  0
  2  9  1  0
  3 11  2  0
  4 12  2  0
  5  6  1  0
  5  7  1  0
  5  8  1  0
  6  9  2  0
  6 11  1  0
  7 12  1  0
  8 13  2  0
  8 14  1  0
  9 10  1  0
 10 15  2  0
 10 16  1  0
 12 20  1  0
 13 17  1  0
 14 18  2  0
 15 19  1  0
 16 22  2  0
 17 21  2  0
 18 21  1  0
 19 23  2  0
 22 23  1  0
M  END
>  <PUBCHEM_COMPOUND_CID>  (43) 
54678486

>  <PUBCHEM_COMPOUND_CANONICALIZED>  (43) 
1

>  <PUBCHEM_CACTVS_COMPLEXITY>  (43) 
501

>  <PUBCHEM_CACTVS_HBOND_ACCEPTOR>  (43) 
4

>  <PUBCHEM_CACTVS_HBOND_DONOR>  (43) 
1

>  <PUBCHEM_CACTVS_ROTATABLE_BOND>  (43) 
4

>  <PUBCHEM_CACTVS_SUBSKEYS>  (43) 
AAADceB4OAAAAAAAAAAAAAAAAAAAAAAAAAAwYIAAAAAAAACBQAAAGgAACAAADQSAmAAyDoAABgCIAqDSCAACCAAgIAAIiAEGCMgMJzKEMRqCeiClwBEIuQeIzuCugAAAAAAIAAAAAAAAABAAAAAAAAAAAA==

>  <PUBCHEM_IUPAC_OPENEYE_NAME>  (43) 
4-hydroxy-3-(3-oxo-1-phenyl-butyl)chromen-2-one

>  <PUBCHEM_IUPAC_CAS_NAME>  (43) 
4-hydroxy-3-(3-oxo-1-phenylbutyl)-1-benzopyran-2-one

>  <PUBCHEM_IUPAC_NAME_MARKUP>  (43) 
4-hydroxy-3-(3-oxo-1-phenylbutyl)chromen-2-one

>  <PUBCHEM_IUPAC_NAME>  (43) 
4-hydroxy-3-(3-oxo-1-phenylbutyl)chromen-2-one

>  <PUBCHEM_IUPAC_SYSTEMATIC_NAME>  (43) 
4-oxidanyl-3-(3-oxidanylidene-1-phenyl-butyl)chromen-2-one

>  <PUBCHEM_IUPAC_TRADITIONAL_NAME>  (43) 
warfarin

>  <PUBCHEM_IUPAC_INCHI>  (43) 
InChI=1S/C19H16O4/c1-12(20)11-15(13-7-3-2-4-8-13)17-18(21)14-9-5-6-10-16(14)23-19(17)22/h2-10,15,21H,11H2,1H3

>  <PUBCHEM_IUPAC_INCHIKEY>  (43) 
PJVWKTKQMONHTI-UHFFFAOYSA-N

>  <PUBCHEM_XLOGP3>  (43) 
2.7

>  <PUBCHEM_EXACT_MASS>  (43) 
308.10485899

>  <PUBCHEM_MOLECULAR_FORMULA>  (43) 
C19H16O4

>  <PUBCHEM_MOLECULAR_WEIGHT>  (43) 
308.3

>  <PUBCHEM_SMILES>  (43) 
CC(=O)CC(C1=CC=CC=C1)C2=C(C3=CC=CC=C3OC2=O)O

>  <PUBCHEM_CONNECTIVITY_SMILES>  (43) 
CC(=O)CC(C1=CC=CC=C1)C2=C(C3=CC=CC=C3OC2=O)O

>  <PUBCHEM_CACTVS_TPSA>  (43) 
63.6

>  <PUBCHEM_MONOISOTOPIC_WEIGHT>  (43) 
308.10485899

>  <PUBCHEM_TOTAL_CHARGE>  (43) 
0

>  <PUBCHEM_HEAVY_ATOM_COUNT>  (43) 
23

>  <PUBCHEM_ATOM_DEF_STEREO_COUNT>  (43) 
0

>  <PUBCHEM_ATOM_UDEF_STEREO_COUNT>  (43) 
1

>  <PUBCHEM_BOND_DEF_STEREO_COUNT>  (43) 
0

>  <PUBCHEM_BOND_UDEF_STEREO_COUNT>  (43) 
0

>  <PUBCHEM_ISOTOPIC_ATOM_COUNT>  (43) 
0

>  <PUBCHEM_COMPONENT_COUNT>  (43) 
1

>  <PUBCHEM_CACTVS_TAUTO_COUNT>  (43) 
-1

>  <PUBCHEM_COORDINATE_TYPE>  (43) 
1
5
255

>  <PUBCHEM_BONDANNOTATIONS>  (43) 
1  11  8
1  15  8
10  15  8
10  16  8
13  17  8
14  18  8
15  19  8
16  22  8
17  21  8
18  21  8
19  23  8
22  23  8
5  7  3
6  11  8
6  9  8
8  13  8
8  14  8
9  10  8

$$$$
5743
     RDKit          2D

 28 31  0  0  1  0  0  0  0  0999 V2000
    5.0183   -0.2293    0.0000 F   0  0  0  0  0  0  0  0  0  0  0  0
    8.0319    1.2610    0.0000 O   0  0  0  0  0  0  0  0  0  0  0  0
    4.7950    0.5046    0.0000 O   0  0  0  0  0  0  0  0  0  0  0  0
   10.0622    0.4874    0.0000 O   0  0  0  0  0  0  0  0  0  0  0  0
    9.8566    2.4768    0.0000 O   0  0  0  0  0  0  0  0  0  0  0  0
    2.0000   -3.0477    0.0000 O   0  0  0  0  0  0  0  0  0  0  0  0
    7.3931    0.0046    0.0000 C   0  0  0  0  0  0  0  0  0  0  0  0
    7.3931   -0.9954    0.0000 C   0  0  0  0  0  0  0  0  0  0  0  0
    6.5271   -1.4954    0.0000 C   0  0  0  0  0  0  0  0  0  0  0  0
    5.6610   -0.9954    0.0000 C   0  0  0  0  0  0  0  0  0  0  0  0
    8.3393    0.3094    0.0000 C   0  0  0  0  0  0  0  0  0  0  0  0
    8.3393   -1.3001    0.0000 C   0  0  0  0  0  0  0  0  0  0  0  0
    6.5271    0.5046    0.0000 C   0  0  0  0  0  0  0  0  0  0  0  0
    8.9229   -0.4954    0.0000 C   0  0  0  0  0  0  0  0  0  0  0  0
    5.6610    0.0046    0.0000 C   0  0  0  0  0  0  0  0  0  0  0  0
    4.7510   -1.5022    0.0000 C   0  0  0  0  0  0  0  0  0  0  0  0
    6.5431   -2.5369    0.0000 C   0  0  0  0  0  0  0  0  0  0  0  0
    7.3931    1.0046    0.0000 C   0  0  0  0  0  0  0  0  0  0  0  0
    5.6451   -3.0646    0.0000 C   0  0  0  0  0  0  0  0  0  0  0  0
    4.7430   -2.5438    0.0000 C   0  0  0  0  0  0  0  0  0  0  0  0
    9.1493    0.8957    0.0000 C   0  0  0  0  0  0  0  0  0  0  0  0
    9.9229   -0.4954    0.0000 C   0  0  0  0  0  0  0  0  0  0  0  0
    4.4163   -0.5599    0.0000 C   0  0  0  0  0  0  0  0  0  0  0  0
    3.8242   -0.9381    0.0000 C   0  0  0  0  0  0  0  0  0  0  0  0
    3.8076   -3.0935    0.0000 C   0  0  0  0  0  0  0  0  0  0  0  0
    9.0465    1.8904    0.0000 C   0  0  0  0  0  0  0  0  0  0  0  0
    2.8763   -1.4661    0.0000 C   0  0  0  0  0  0  0  0  0  0  0  0
    2.8680   -2.5511    0.0000 C   0  0  0  0  0  0  0  0  0  0  0  0
 10  1  1  6
 11  2  1  6
 15  3  1  1
  4 21  2  0
  5 26  1  0
  6 28  2  0
  7  8  1  0
  7 11  1  0
  7 13  1  0
  7 18  1  1
  8  9  1  0
  8 12  1  1
  9 10  1  0
  9 17  1  6
 10 15  1  0
 10 16  1  0
 11 14  1  0
 11 21  1  0
 12 14  1  0
 13 15  1  0
 14 22  1  6
 16 20  1  0
 16 23  1  1
 16 24  1  0
 17 19  1  0
 19 20  1  0
 20 25  2  0
 21 26  1  0
 24 27  2  0
 25 28  1  0
 27 28  1  0
M  END
>  <PUBCHEM_COMPOUND_CID>  (44) 
5743

>  <PUBCHEM_COMPOUND_CANONICALIZED>  (44) 
1

>  <PUBCHEM_CACTVS_COMPLEXITY>  (44) 
805

>  <PUBCHEM_CACTVS_HBOND_ACCEPTOR>  (44) 
6

>  <PUBCHEM_CACTVS_HBOND_DONOR>  (44) 
3

>  <PUBCHEM_CACTVS_ROTATABLE_BOND>  (44) 
2

>  <PUBCHEM_CACTVS_SUBSKEYS>  (44) 
AAADceB4OQAAAAAAAAAAAAAAAAAAAYAAAAAwYIAAAAAAAGDAAAAAGwAACAAAD1SggAICAAAAAgCIAqBSAAIAAAAgAAAICAFAAEgAEBIAAQAAQAAFgAAIAYPIzPDPgAAAAAAAAADAAAYAADAAAYAADAAAAA==

>  <PUBCHEM_IUPAC_OPENEYE_NAME>  (44) 
(8S,9R,10S,11S,13S,14S,16R,17R)-9-fluoro-11,17-dihydroxy-17-(2-hydroxyacetyl)-10,13,16-trimethyl-6,7,8,11,12,14,15,16-octahydrocyclopenta[a]phenanthren-3-one

>  <PUBCHEM_IUPAC_CAS_NAME>  (44) 
(8S,9R,10S,11S,13S,14S,16R,17R)-9-fluoro-11,17-dihydroxy-17-(2-hydroxy-1-oxoethyl)-10,13,16-trimethyl-6,7,8,11,12,14,15,16-octahydrocyclopenta[a]phenanthren-3-one

>  <PUBCHEM_IUPAC_NAME_MARKUP>  (44) 
(8<I>S</I>,9<I>R</I>,10<I>S</I>,11<I>S</I>,13<I>S</I>,14<I>S</I>,16<I>R</I>,17<I>R</I>)-9-fluoro-11,17-dihydroxy-17-(2-hydroxyacetyl)-10,13,16-trimethyl-6,7,8,11,12,14,15,16-octahydrocyclopenta[a]phenanthren-3-one

>  <PUBCHEM_IUPAC_NAME>  (44) 
(8S,9R,10S,11S,13S,14S,16R,17R)-9-fluoro-11,17-dihydroxy-17-(2-hydroxyacetyl)-10,13,16-trimethyl-6,7,8,11,12,14,15,16-octahydrocyclopenta[a]phenanthren-3-one

>  <PUBCHEM_IUPAC_SYSTEMATIC_NAME>  (44) 
(8S,9R,10S,11S,13S,14S,16R,17R)-9-fluoranyl-10,13,16-trimethyl-11,17-bis(oxidanyl)-17-(2-oxidanylethanoyl)-6,7,8,11,12,14,15,16-octahydrocyclopenta[a]phenanthren-3-one

>  <PUBCHEM_IUPAC_TRADITIONAL_NAME>  (44) 
(8S,9R,10S,11S,13S,14S,16R,17R)-9-fluoro-17-glycoloyl-11,17-dihydroxy-10,13,16-trimethyl-6,7,8,11,12,14,15,16-octahydrocyclopenta[a]phenanthren-3-one

>  <PUBCHEM_IUPAC_INCHI>  (44) 
InChI=1S/C22H29FO5/c1-12-8-16-15-5-4-13-9-14(25)6-7-19(13,2)21(15,23)17(26)10-20(16,3)22(12,28)18(27)11-24/h6-7,9,12,15-17,24,26,28H,4-5,8,10-11H2,1-3H3/t12-,15+,16+,17+,19+,20+,21+,22+/m1/s1

>  <PUBCHEM_IUPAC_INCHIKEY>  (44) 
UREBDLICKHMUKA-CXSFZGCWSA-N

>  <PUBCHEM_XLOGP3>  (44) 
1.9

>  <PUBCHEM_EXACT_MASS>  (44) 
392.19990218

>  <PUBCHEM_MOLECULAR_FORMULA>  (44) 
C22H29FO5

>  <PUBCHEM_MOLECULAR_WEIGHT>  (44) 
392.5

>  <PUBCHEM_SMILES>  (44) 
C[C@@H]1C[C@H]2[C@@H]3CCC4=CC(=O)C=C[C@@]4([C@]3([C@H](C[C@@]2([C@]1(C(=O)CO)O)C)O)F)C

>  <PUBCHEM_CONNECTIVITY_SMILES>  (44) 
CC1CC2C3CCC4=CC(=O)C=CC4(C3(C(CC2(C1(C(=O)CO)O)C)O)F)C

>  <PUBCHEM_CACTVS_TPSA>  (44) 
94.8

>  <PUBCHEM_MONOISOTOPIC_WEIGHT>  (44) 
392.19990218

>  <PUBCHEM_TOTAL_CHARGE>  (44) 
0

>  <PUBCHEM_HEAVY_ATOM_COUNT>  (44) 
28

>  <PUBCHEM_ATOM_DEF_STEREO_COUNT>  (44) 
8

>  <PUBCHEM_ATOM_UDEF_STEREO_COUNT>  (44) 
0

>  <PUBCHEM_BOND_DEF_STEREO_COUNT>  (44) 
0

>  <PUBCHEM_BOND_UDEF_STEREO_COUNT>  (44) 
0

>  <PUBCHEM_ISOTOPIC_ATOM_COUNT>  (44) 
0

>  <PUBCHEM_COMPONENT_COUNT>  (44) 
1

>  <PUBCHEM_CACTVS_TAUTO_COUNT>  (44) 
-1

>  <PUBCHEM_COORDINATE_TYPE>  (44) 
1
5
255

>  <PUBCHEM_BONDANNOTATIONS>  (44) 
10  1  6
14  22  6
16  23  5
11  2  6
15  3  5
7  18  5
8  29  6
9  30  5

$$$$
5755
     RDKit          2D

 26 29  0  0  1  0  0  0  0  0999 V2000
    8.0319    1.8625    0.0000 O   0  0  0  0  0  0  0  0  0  0  0  0
    4.7950    1.1062    0.0000 O   0  0  0  0  0  0  0  0  0  0  0  0
    9.0465    2.4920    0.0000 O   0  0  0  0  0  0  0  0  0  0  0  0
   10.8722    1.6754    0.0000 O   0  0  0  0  0  0  0  0  0  0  0  0
    2.0000   -2.4462    0.0000 O   0  0  0  0  0  0  0  0  0  0  0  0
    7.3931    0.6062    0.0000 C   0  0  0  0  0  0  0  0  0  0  0  0
    7.3931   -0.3938    0.0000 C   0  0  0  0  0  0  0  0  0  0  0  0
    6.5271   -0.8938    0.0000 C   0  0  0  0  0  0  0  0  0  0  0  0
    5.6610   -0.3938    0.0000 C   0  0  0  0  0  0  0  0  0  0  0  0
    8.3393    0.9109    0.0000 C   0  0  0  0  0  0  0  0  0  0  0  0
    6.5271    1.1062    0.0000 C   0  0  0  0  0  0  0  0  0  0  0  0
    8.3393   -0.6986    0.0000 C   0  0  0  0  0  0  0  0  0  0  0  0
    5.6610    0.6062    0.0000 C   0  0  0  0  0  0  0  0  0  0  0  0
    4.7510   -0.9007    0.0000 C   0  0  0  0  0  0  0  0  0  0  0  0
    8.9229    0.1062    0.0000 C   0  0  0  0  0  0  0  0  0  0  0  0
    6.5431   -1.9353    0.0000 C   0  0  0  0  0  0  0  0  0  0  0  0
    7.3931    1.6062    0.0000 C   0  0  0  0  0  0  0  0  0  0  0  0
    5.6451   -2.4631    0.0000 C   0  0  0  0  0  0  0  0  0  0  0  0
    4.7430   -1.9423    0.0000 C   0  0  0  0  0  0  0  0  0  0  0  0
    9.1493    1.4973    0.0000 C   0  0  0  0  0  0  0  0  0  0  0  0
    4.7587    0.0993    0.0000 C   0  0  0  0  0  0  0  0  0  0  0  0
    3.8242   -0.3366    0.0000 C   0  0  0  0  0  0  0  0  0  0  0  0
    3.8076   -2.4920    0.0000 C   0  0  0  0  0  0  0  0  0  0  0  0
   10.0622    1.0890    0.0000 C   0  0  0  0  0  0  0  0  0  0  0  0
    2.8763   -0.8645    0.0000 C   0  0  0  0  0  0  0  0  0  0  0  0
    2.8680   -1.9495    0.0000 C   0  0  0  0  0  0  0  0  0  0  0  0
 10  1  1  6
 13  2  1  1
  3 20  2  0
  4 24  1  0
  5 26  2  0
  6  7  1  0
  6 10  1  0
  6 11  1  0
  6 17  1  1
  7  8  1  0
  7 12  1  1
  8  9  1  0
  8 16  1  6
  9 13  1  1
  9 14  1  0
 10 15  1  0
 10 20  1  0
 11 13  1  0
 12 15  1  0
 14 19  1  0
 14 21  1  1
 14 22  1  0
 16 18  1  0
 18 19  1  0
 19 23  2  0
 20 24  1  0
 22 25  2  0
 23 26  1  0
 25 26  1  0
M  END
>  <PUBCHEM_COMPOUND_CID>  (45) 
5755

>  <PUBCHEM_COMPOUND_CANONICALIZED>  (45) 
1

>  <PUBCHEM_CACTVS_COMPLEXITY>  (45) 
724

>  <PUBCHEM_CACTVS_HBOND_ACCEPTOR>  (45) 
5

>  <PUBCHEM_CACTVS_HBOND_DONOR>  (45) 
3

>  <PUBCHEM_CACTVS_ROTATABLE_BOND>  (45) 
2

>  <PUBCHEM_CACTVS_SUBSKEYS>  (45) 
AAADceB4OAAAAAAAAAAAAAAAAAAAAYAAAAAwYIAAAAAAAGDAAAAAGgAACAAAD1SggAICAAAAAgCIAqBSAAIAAAAgAAAICAFAAEgAEBIAAQAAQAAFgAAIAYPIzPDPgAAAAAAAAADAAAYAADAAAYAADAAAAA==

>  <PUBCHEM_IUPAC_OPENEYE_NAME>  (45) 
(8S,9S,10R,11S,13S,14S,17R)-11,17-dihydroxy-17-(2-hydroxyacetyl)-10,13-dimethyl-7,8,9,11,12,14,15,16-octahydro-6H-cyclopenta[a]phenanthren-3-one

>  <PUBCHEM_IUPAC_CAS_NAME>  (45) 
(8S,9S,10R,11S,13S,14S,17R)-11,17-dihydroxy-17-(2-hydroxy-1-oxoethyl)-10,13-dimethyl-7,8,9,11,12,14,15,16-octahydro-6H-cyclopenta[a]phenanthren-3-one

>  <PUBCHEM_IUPAC_NAME_MARKUP>  (45) 
(8<I>S</I>,9<I>S</I>,10<I>R</I>,11<I>S</I>,13<I>S</I>,14<I>S</I>,17<I>R</I>)-11,17-dihydroxy-17-(2-hydroxyacetyl)-10,13-dimethyl-7,8,9,11,12,14,15,16-octahydro-6<I>H</I>-cyclopenta[a]phenanthren-3-one

>  <PUBCHEM_IUPAC_NAME>  (45) 
(8S,9S,10R,11S,13S,14S,17R)-11,17-dihydroxy-17-(2-hydroxyacetyl)-10,13-dimethyl-7,8,9,11,12,14,15,16-octahydro-6H-cyclopenta[a]phenanthren-3-one

>  <PUBCHEM_IUPAC_SYSTEMATIC_NAME>  (45) 
(8S,9S,10R,11S,13S,14S,17R)-10,13-dimethyl-11,17-bis(oxidanyl)-17-(2-oxidanylethanoyl)-7,8,9,11,12,14,15,16-octahydro-6H-cyclopenta[a]phenanthren-3-one

>  <PUBCHEM_IUPAC_TRADITIONAL_NAME>  (45) 
(8S,9S,10R,11S,13S,14S,17R)-17-glycoloyl-11,17-dihydroxy-10,13-dimethyl-7,8,9,11,12,14,15,16-octahydro-6H-cyclopenta[a]phenanthren-3-one

>  <PUBCHEM_IUPAC_INCHI>  (45) 
InChI=1S/C21H28O5/c1-19-7-5-13(23)9-12(19)3-4-14-15-6-8-21(26,17(25)11-22)20(15,2)10-16(24)18(14)19/h5,7,9,14-16,18,22,24,26H,3-4,6,8,10-11H2,1-2H3/t14-,15-,16-,18+,19-,20-,21-/m0/s1

>  <PUBCHEM_IUPAC_INCHIKEY>  (45) 
OIGNJSKKLXVSLS-VWUMJDOOSA-N

>  <PUBCHEM_XLOGP3>  (45) 
1.6

>  <PUBCHEM_EXACT_MASS>  (45) 
360.19367399

>  <PUBCHEM_MOLECULAR_FORMULA>  (45) 
C21H28O5

>  <PUBCHEM_MOLECULAR_WEIGHT>  (45) 
360.4

>  <PUBCHEM_SMILES>  (45) 
C[C@]12C[C@@H]([C@H]3[C@H]([C@@H]1CC[C@@]2(C(=O)CO)O)CCC4=CC(=O)C=C[C@]34C)O

>  <PUBCHEM_CONNECTIVITY_SMILES>  (45) 
CC12CC(C3C(C1CCC2(C(=O)CO)O)CCC4=CC(=O)C=CC34C)O

>  <PUBCHEM_CACTVS_TPSA>  (45) 
94.8

>  <PUBCHEM_MONOISOTOPIC_WEIGHT>  (45) 
360.19367399

>  <PUBCHEM_TOTAL_CHARGE>  (45) 
0

>  <PUBCHEM_HEAVY_ATOM_COUNT>  (45) 
26

>  <PUBCHEM_ATOM_DEF_STEREO_COUNT>  (45) 
7

>  <PUBCHEM_ATOM_UDEF_STEREO_COUNT>  (45) 
0

>  <PUBCHEM_BOND_DEF_STEREO_COUNT>  (45) 
0

>  <PUBCHEM_BOND_UDEF_STEREO_COUNT>  (45) 
0

>  <PUBCHEM_ISOTOPIC_ATOM_COUNT>  (45) 
0

>  <PUBCHEM_COMPONENT_COUNT>  (45) 
1

>  <PUBCHEM_CACTVS_TAUTO_COUNT>  (45) 
-1

>  <PUBCHEM_COORDINATE_TYPE>  (45) 
1
5
255

>  <PUBCHEM_BONDANNOTATIONS>  (45) 
10  1  6
14  21  5
13  2  5
6  17  5
7  27  6
8  28  5
9  29  6

$$$$
60606
     RDKit          2D

 21 23  0  0  1  0  0  0  0  0999 V2000
    2.8660    0.7500    0.0000 Cl  0  0  0  0  0  0  0  0  0  0  0  0
    8.1424   -2.0547    0.0000 S   0  0  0  0  0  0  0  0  0  0  0  0
    3.7321    1.2500    0.0000 O   0  0  0  0  0  0  0  0  0  0  0  0
    5.4641    1.2500    0.0000 O   0  0  0  0  0  0  0  0  0  0  0  0
    5.4641   -0.7500    0.0000 N   0  0  0  0  0  0  0  0  0  0  0  0
    5.4641   -1.7500    0.0000 C   0  0  0  0  0  0  0  0  0  0  0  0
    6.3301   -0.2500    0.0000 C   0  0  0  0  0  0  0  0  0  0  0  0
    4.5981   -0.2500    0.0000 C   0  0  0  0  0  0  0  0  0  0  0  0
    6.3301   -2.2500    0.0000 C   0  0  0  0  0  0  0  0  0  0  0  0
    7.1962   -0.7500    0.0000 C   0  0  0  0  0  0  0  0  0  0  0  0
    7.1962   -1.7500    0.0000 C   0  0  0  0  0  0  0  0  0  0  0  0
    3.7321   -0.7500    0.0000 C   0  0  0  0  0  0  0  0  0  0  0  0
    8.1424   -0.4453    0.0000 C   0  0  0  0  0  0  0  0  0  0  0  0
    4.5981    0.7500    0.0000 C   0  0  0  0  0  0  0  0  0  0  0  0
    8.7260   -1.2500    0.0000 C   0  0  0  0  0  0  0  0  0  0  0  0
    2.8660   -0.2500    0.0000 C   0  0  0  0  0  0  0  0  0  0  0  0
    3.7321   -1.7500    0.0000 C   0  0  0  0  0  0  0  0  0  0  0  0
    2.0000   -0.7500    0.0000 C   0  0  0  0  0  0  0  0  0  0  0  0
    2.8660   -2.2500    0.0000 C   0  0  0  0  0  0  0  0  0  0  0  0
    2.0000   -1.7500    0.0000 C   0  0  0  0  0  0  0  0  0  0  0  0
    3.7321    2.2500    0.0000 C   0  0  0  0  0  0  0  0  0  0  0  0
  1 16  1  0
  2 11  1  0
  2 15  1  0
  3 14  1  0
  3 21  1  0
  4 14  2  0
  5  6  1  0
  5  7  1  0
  8  5  1  1
  6  9  1  0
  7 10  1  0
  8 12  1  0
  8 14  1  0
  9 11  1  0
 10 11  2  0
 10 13  1  0
 12 16  2  0
 12 17  1  0
 13 15  2  0
 16 18  1  0
 17 19  2  0
 18 20  2  0
 19 20  1  0
M  END
>  <PUBCHEM_COMPOUND_CID>  (46) 
60606

>  <PUBCHEM_COMPOUND_CANONICALIZED>  (46) 
1

>  <PUBCHEM_CACTVS_COMPLEXITY>  (46) 
381

>  <PUBCHEM_CACTVS_HBOND_ACCEPTOR>  (46) 
4

>  <PUBCHEM_CACTVS_HBOND_DONOR>  (46) 
0

>  <PUBCHEM_CACTVS_ROTATABLE_BOND>  (46) 
4

>  <PUBCHEM_CACTVS_SUBSKEYS>  (46) 
AAADceB6MABEAAAAAAAAAAAAAAAAASAAAAA8QAAAAAAAAFgBwAAAHgYAAAAADCrF2CayCYMABAiMAiDSCACDAIAgDRBIiBmIBogKIDKhlzGFIAhkwAG4iAeYyKCOAAAAAAABAAAAAAAAAAIAAAAAAAAAAA==

>  <PUBCHEM_IUPAC_OPENEYE_NAME>  (46) 
methyl (2S)-2-(2-chlorophenyl)-2-(6,7-dihydro-4H-thieno[3,2-c]pyridin-5-yl)acetate

>  <PUBCHEM_IUPAC_CAS_NAME>  (46) 
(2S)-2-(2-chlorophenyl)-2-(6,7-dihydro-4H-thieno[3,2-c]pyridin-5-yl)acetic acid methyl ester

>  <PUBCHEM_IUPAC_NAME_MARKUP>  (46) 
methyl (2<I>S</I>)-2-(2-chlorophenyl)-2-(6,7-dihydro-4<I>H</I>-thieno[3,2-c]pyridin-5-yl)acetate

>  <PUBCHEM_IUPAC_NAME>  (46) 
methyl (2S)-2-(2-chlorophenyl)-2-(6,7-dihydro-4H-thieno[3,2-c]pyridin-5-yl)acetate

>  <PUBCHEM_IUPAC_SYSTEMATIC_NAME>  (46) 
methyl (2S)-2-(2-chlorophenyl)-2-(6,7-dihydro-4H-thieno[3,2-c]pyridin-5-yl)ethanoate

>  <PUBCHEM_IUPAC_TRADITIONAL_NAME>  (46) 
(2S)-2-(2-chlorophenyl)-2-(6,7-dihydro-4H-thieno[3,2-c]pyridin-5-yl)acetic acid methyl ester

>  <PUBCHEM_IUPAC_INCHI>  (46) 
InChI=1S/C16H16ClNO2S/c1-20-16(19)15(12-4-2-3-5-13(12)17)18-8-6-14-11(10-18)7-9-21-14/h2-5,7,9,15H,6,8,10H2,1H3/t15-/m0/s1

>  <PUBCHEM_IUPAC_INCHIKEY>  (46) 
GKTWGGQPFAXNFI-HNNXBMFYSA-N

>  <PUBCHEM_XLOGP3_AA>  (46) 
3.8

>  <PUBCHEM_EXACT_MASS>  (46) 
321.0590276

>  <PUBCHEM_MOLECULAR_FORMULA>  (46) 
C16H16ClNO2S

>  <PUBCHEM_MOLECULAR_WEIGHT>  (46) 
321.8

>  <PUBCHEM_SMILES>  (46) 
COC(=O)[C@H](C1=CC=CC=C1Cl)N2CCC3=C(C2)C=CS3

>  <PUBCHEM_CONNECTIVITY_SMILES>  (46) 
COC(=O)C(C1=CC=CC=C1Cl)N2CCC3=C(C2)C=CS3

>  <PUBCHEM_CACTVS_TPSA>  (46) 
57.8

>  <PUBCHEM_MONOISOTOPIC_WEIGHT>  (46) 
321.0590276

>  <PUBCHEM_TOTAL_CHARGE>  (46) 
0

>  <PUBCHEM_HEAVY_ATOM_COUNT>  (46) 
21

>  <PUBCHEM_ATOM_DEF_STEREO_COUNT>  (46) 
1

>  <PUBCHEM_ATOM_UDEF_STEREO_COUNT>  (46) 
0

>  <PUBCHEM_BOND_DEF_STEREO_COUNT>  (46) 
0

>  <PUBCHEM_BOND_UDEF_STEREO_COUNT>  (46) 
0

>  <PUBCHEM_ISOTOPIC_ATOM_COUNT>  (46) 
0

>  <PUBCHEM_COMPONENT_COUNT>  (46) 
1

>  <PUBCHEM_CACTVS_TAUTO_COUNT>  (46) 
-1

>  <PUBCHEM_COORDINATE_TYPE>  (46) 
1
5
255

>  <PUBCHEM_BONDANNOTATIONS>  (46) 
10  11  8
10  13  8
12  16  8
12  17  8
13  15  8
16  18  8
17  19  8
18  20  8
19  20  8
2  11  8
2  15  8
8  14  5

$$$$
60823
     RDKit          2D

 41 44  0  0  1  0  0  0  0  0999 V2000
   10.1755   -4.8965    0.0000 F   0  0  0  0  0  0  0  0  0  0  0  0
    6.5133   -1.2358    0.0000 O   0  0  0  0  0  0  0  0  0  0  0  0
    4.8191   -0.8756    0.0000 O   0  0  0  0  0  0  0  0  0  0  0  0
   12.2578    1.3468    0.0000 O   0  0  0  0  0  0  0  0  0  0  0  0
    2.5897    1.1318    0.0000 O   0  0  0  0  0  0  0  0  0  0  0  0
    3.1249   -0.5155    0.0000 O   0  0  0  0  0  0  0  0  0  0  0  0
    9.3665   -0.3087    0.0000 N   0  0  0  0  0  0  0  0  0  0  0  0
   10.8565    2.3649    0.0000 N   0  0  0  0  0  0  0  0  0  0  0  0
    9.6755    0.6424    0.0000 C   0  0  0  0  0  0  0  0  0  0  0  0
    8.4154   -0.6177    0.0000 C   0  0  0  0  0  0  0  0  0  0  0  0
   10.1755   -0.8965    0.0000 C   0  0  0  0  0  0  0  0  0  0  0  0
    9.0877    1.4514    0.0000 C   0  0  0  0  0  0  0  0  0  0  0  0
    7.6723    0.0514    0.0000 C   0  0  0  0  0  0  0  0  0  0  0  0
   10.6755    0.6424    0.0000 C   0  0  0  0  0  0  0  0  0  0  0  0
   10.9845   -0.3087    0.0000 C   0  0  0  0  0  0  0  0  0  0  0  0
    6.7212   -0.2576    0.0000 C   0  0  0  0  0  0  0  0  0  0  0  0
    5.9781    0.4115    0.0000 C   0  0  0  0  0  0  0  0  0  0  0  0
   10.1755   -1.8965    0.0000 C   0  0  0  0  0  0  0  0  0  0  0  0
    8.0932    1.3468    0.0000 C   0  0  0  0  0  0  0  0  0  0  0  0
    9.4944    2.3649    0.0000 C   0  0  0  0  0  0  0  0  0  0  0  0
   11.9356   -0.6177    0.0000 C   0  0  0  0  0  0  0  0  0  0  0  0
    5.0270    0.1025    0.0000 C   0  0  0  0  0  0  0  0  0  0  0  0
   11.2633    1.4514    0.0000 C   0  0  0  0  0  0  0  0  0  0  0  0
    4.2839    0.7716    0.0000 C   0  0  0  0  0  0  0  0  0  0  0  0
   11.0415   -2.3965    0.0000 C   0  0  0  0  0  0  0  0  0  0  0  0
    9.3095   -2.3965    0.0000 C   0  0  0  0  0  0  0  0  0  0  0  0
   12.6787    0.0514    0.0000 C   0  0  0  0  0  0  0  0  0  0  0  0
   12.1435   -1.5959    0.0000 C   0  0  0  0  0  0  0  0  0  0  0  0
   11.0415   -3.3965    0.0000 C   0  0  0  0  0  0  0  0  0  0  0  0
    9.3095   -3.3965    0.0000 C   0  0  0  0  0  0  0  0  0  0  0  0
   13.6298   -0.2576    0.0000 C   0  0  0  0  0  0  0  0  0  0  0  0
   13.0945   -1.9049    0.0000 C   0  0  0  0  0  0  0  0  0  0  0  0
   10.1755   -3.8965    0.0000 C   0  0  0  0  0  0  0  0  0  0  0  0
   11.4443    3.1739    0.0000 C   0  0  0  0  0  0  0  0  0  0  0  0
    3.3328    0.4626    0.0000 C   0  0  0  0  0  0  0  0  0  0  0  0
   13.8377   -1.2358    0.0000 C   0  0  0  0  0  0  0  0  0  0  0  0
   11.0376    4.0875    0.0000 C   0  0  0  0  0  0  0  0  0  0  0  0
   12.4388    3.0694    0.0000 C   0  0  0  0  0  0  0  0  0  0  0  0
   11.6254    4.8965    0.0000 C   0  0  0  0  0  0  0  0  0  0  0  0
   13.0266    3.8784    0.0000 C   0  0  0  0  0  0  0  0  0  0  0  0
   12.6199    4.7920    0.0000 C   0  0  0  0  0  0  0  0  0  0  0  0
  1 33  1  0
 16  2  1  1
 22  3  1  1
  4 23  2  0
  5 35  1  0
  6 35  2  0
  7  9  1  0
  7 10  1  0
  7 11  1  0
  8 23  1  0
  8 34  1  0
  9 12  1  0
  9 14  2  0
 10 13  1  0
 11 15  2  0
 11 18  1  0
 12 19  1  0
 12 20  1  0
 13 16  1  0
 14 15  1  0
 14 23  1  0
 15 21  1  0
 16 17  1  0
 17 22  1  0
 18 25  2  0
 18 26  1  0
 21 27  2  0
 21 28  1  0
 22 24  1  0
 24 35  1  0
 25 29  1  0
 26 30  2  0
 27 31  1  0
 28 32  2  0
 29 33  2  0
 30 33  1  0
 31 36  2  0
 32 36  1  0
 34 37  2  0
 34 38  1  0
 37 39  1  0
 38 40  2  0
 39 41  2  0
 40 41  1  0
M  END
>  <PUBCHEM_COMPOUND_CID>  (47) 
60823

>  <PUBCHEM_COMPOUND_CANONICALIZED>  (47) 
1

>  <PUBCHEM_CACTVS_COMPLEXITY>  (47) 
822

>  <PUBCHEM_CACTVS_HBOND_ACCEPTOR>  (47) 
6

>  <PUBCHEM_CACTVS_HBOND_DONOR>  (47) 
4

>  <PUBCHEM_CACTVS_ROTATABLE_BOND>  (47) 
12

>  <PUBCHEM_CACTVS_SUBSKEYS>  (47) 
AAADcfB/OQAAAAAAAAAAAAAAAAAAAWAAAAAwYMAAAAAAAAAB1AAAHwAQCAAADRzhng4yyJPMEgCoAyXyXACCgCAlAiAI2CE4ZNgIMP7A1ZGEYYhntADIyUec/ObOgAAAAAAAAAAAAAAAAAAAAAAAAAAAAA==

>  <PUBCHEM_IUPAC_OPENEYE_NAME>  (47) 
(3R,5R)-7-[2-(4-fluorophenyl)-5-isopropyl-3-phenyl-4-(phenylcarbamoyl)pyrrol-1-yl]-3,5-dihydroxy-heptanoic acid

>  <PUBCHEM_IUPAC_CAS_NAME>  (47) 
(3R,5R)-7-[4-[anilino(oxo)methyl]-2-(4-fluorophenyl)-3-phenyl-5-propan-2-yl-1-pyrrolyl]-3,5-dihydroxyheptanoic acid

>  <PUBCHEM_IUPAC_NAME_MARKUP>  (47) 
(3<I>R</I>,5<I>R</I>)-7-[2-(4-fluorophenyl)-3-phenyl-4-(phenylcarbamoyl)-5-propan-2-ylpyrrol-1-yl]-3,5-dihydroxyheptanoic acid

>  <PUBCHEM_IUPAC_NAME>  (47) 
(3R,5R)-7-[2-(4-fluorophenyl)-3-phenyl-4-(phenylcarbamoyl)-5-propan-2-ylpyrrol-1-yl]-3,5-dihydroxyheptanoic acid

>  <PUBCHEM_IUPAC_SYSTEMATIC_NAME>  (47) 
(3R,5R)-7-[2-(4-fluorophenyl)-3-phenyl-4-(phenylcarbamoyl)-5-propan-2-yl-pyrrol-1-yl]-3,5-bis(oxidanyl)heptanoic acid

>  <PUBCHEM_IUPAC_TRADITIONAL_NAME>  (47) 
(3R,5R)-7-[2-(4-fluorophenyl)-5-isopropyl-3-phenyl-4-(phenylcarbamoyl)pyrrol-1-yl]-3,5-dihydroxy-enanthic acid

>  <PUBCHEM_IUPAC_INCHI>  (47) 
InChI=1S/C33H35FN2O5/c1-21(2)31-30(33(41)35-25-11-7-4-8-12-25)29(22-9-5-3-6-10-22)32(23-13-15-24(34)16-14-23)36(31)18-17-26(37)19-27(38)20-28(39)40/h3-16,21,26-27,37-38H,17-20H2,1-2H3,(H,35,41)(H,39,40)/t26-,27-/m1/s1

>  <PUBCHEM_IUPAC_INCHIKEY>  (47) 
XUKUURHRXDUEBC-KAYWLYCHSA-N

>  <PUBCHEM_XLOGP3_AA>  (47) 
5

>  <PUBCHEM_EXACT_MASS>  (47) 
558.25300038

>  <PUBCHEM_MOLECULAR_FORMULA>  (47) 
C33H35FN2O5

>  <PUBCHEM_MOLECULAR_WEIGHT>  (47) 
558.6

>  <PUBCHEM_SMILES>  (47) 
CC(C)C1=C(C(=C(N1CC[C@H](C[C@H](CC(=O)O)O)O)C2=CC=C(C=C2)F)C3=CC=CC=C3)C(=O)NC4=CC=CC=C4

>  <PUBCHEM_CONNECTIVITY_SMILES>  (47) 
CC(C)C1=C(C(=C(N1CCC(CC(CC(=O)O)O)O)C2=CC=C(C=C2)F)C3=CC=CC=C3)C(=O)NC4=CC=CC=C4

>  <PUBCHEM_CACTVS_TPSA>  (47) 
112

>  <PUBCHEM_MONOISOTOPIC_WEIGHT>  (47) 
558.25300038

>  <PUBCHEM_TOTAL_CHARGE>  (47) 
0

>  <PUBCHEM_HEAVY_ATOM_COUNT>  (47) 
41

>  <PUBCHEM_ATOM_DEF_STEREO_COUNT>  (47) 
2

>  <PUBCHEM_ATOM_UDEF_STEREO_COUNT>  (47) 
0

>  <PUBCHEM_BOND_DEF_STEREO_COUNT>  (47) 
0

>  <PUBCHEM_BOND_UDEF_STEREO_COUNT>  (47) 
0

>  <PUBCHEM_ISOTOPIC_ATOM_COUNT>  (47) 
0

>  <PUBCHEM_COMPONENT_COUNT>  (47) 
1

>  <PUBCHEM_CACTVS_TAUTO_COUNT>  (47) 
-1

>  <PUBCHEM_COORDINATE_TYPE>  (47) 
1
5
255

>  <PUBCHEM_BONDANNOTATIONS>  (47) 
11  15  8
14  15  8
18  25  8
18  26  8
16  2  5
21  27  8
21  28  8
25  29  8
26  30  8
27  31  8
28  32  8
29  33  8
22  3  5
30  33  8
31  36  8
32  36  8
34  37  8
34  38  8
37  39  8
38  40  8
39  41  8
40  41  8
7  11  8
7  9  8
9  14  8

$$$$
68617
     RDKit          2D

 20 22  0  0  1  0  0  0  0  0999 V2000
    2.0000   -2.7500    0.0000 Cl  0  0  0  0  0  0  0  0  0  0  0  0
    3.7321   -3.7500    0.0000 Cl  0  0  0  0  0  0  0  0  0  0  0  0
    3.7321    3.2500    0.0000 N   0  0  0  0  0  0  0  0  0  0  0  0
    3.7321    0.2500    0.0000 C   0  0  0  0  0  0  0  0  0  0  0  0
    2.8660    0.7500    0.0000 C   0  0  0  0  0  0  0  0  0  0  0  0
    3.7321    2.2500    0.0000 C   0  0  0  0  0  0  0  0  0  0  0  0
    2.8660    1.7500    0.0000 C   0  0  0  0  0  0  0  0  0  0  0  0
    4.5981    0.7500    0.0000 C   0  0  0  0  0  0  0  0  0  0  0  0
    4.5981    1.7500    0.0000 C   0  0  0  0  0  0  0  0  0  0  0  0
    3.7321   -0.7500    0.0000 C   0  0  0  0  0  0  0  0  0  0  0  0
    5.4920    0.2153    0.0000 C   0  0  0  0  0  0  0  0  0  0  0  0
    5.4920    2.2847    0.0000 C   0  0  0  0  0  0  0  0  0  0  0  0
    2.8660   -1.2500    0.0000 C   0  0  0  0  0  0  0  0  0  0  0  0
    4.5981   -1.2500    0.0000 C   0  0  0  0  0  0  0  0  0  0  0  0
    6.3981    0.7292    0.0000 C   0  0  0  0  0  0  0  0  0  0  0  0
    6.3981    1.7708    0.0000 C   0  0  0  0  0  0  0  0  0  0  0  0
    2.8660    3.7500    0.0000 C   0  0  0  0  0  0  0  0  0  0  0  0
    2.8660   -2.2500    0.0000 C   0  0  0  0  0  0  0  0  0  0  0  0
    4.5981   -2.2500    0.0000 C   0  0  0  0  0  0  0  0  0  0  0  0
    3.7321   -2.7500    0.0000 C   0  0  0  0  0  0  0  0  0  0  0  0
  1 18  1  0
  2 20  1  0
  6  3  1  6
  3 17  1  0
  4  5  1  0
  4  8  1  0
  4 10  1  6
  5  7  1  0
  6  7  1  0
  6  9  1  0
  8  9  2  0
  8 11  1  0
  9 12  1  0
 10 13  2  0
 10 14  1  0
 11 15  2  0
 12 16  2  0
 13 18  1  0
 14 19  2  0
 15 16  1  0
 18 20  2  0
 19 20  1  0
M  END
>  <PUBCHEM_COMPOUND_CID>  (48) 
68617

>  <PUBCHEM_COMPOUND_CANONICALIZED>  (48) 
1

>  <PUBCHEM_CACTVS_COMPLEXITY>  (48) 
322

>  <PUBCHEM_CACTVS_HBOND_ACCEPTOR>  (48) 
1

>  <PUBCHEM_CACTVS_HBOND_DONOR>  (48) 
1

>  <PUBCHEM_CACTVS_ROTATABLE_BOND>  (48) 
2

>  <PUBCHEM_CACTVS_SUBSKEYS>  (48) 
AAADceB6AAAGAAAAAAAAAAAAAAAAAAAAAAAwYMAAAAAAAADBQAAAHAIQAAAADSrBGCQyAILAAACAAiBCAACCAAAgBQAIisAIBogIICKBkxGEIAhgkAAIiAcQgMAOhAAAIAAQAAQYAATAACQACAAAAAAAAA==

>  <PUBCHEM_IUPAC_OPENEYE_NAME>  (48) 
(1S,4S)-4-(3,4-dichlorophenyl)-N-methyl-tetralin-1-amine

>  <PUBCHEM_IUPAC_CAS_NAME>  (48) 
(1S,4S)-4-(3,4-dichlorophenyl)-N-methyl-1,2,3,4-tetrahydronaphthalen-1-amine

>  <PUBCHEM_IUPAC_NAME_MARKUP>  (48) 
(1<I>S</I>,4<I>S</I>)-4-(3,4-dichlorophenyl)-<I>N</I>-methyl-1,2,3,4-tetrahydronaphthalen-1-amine

>  <PUBCHEM_IUPAC_NAME>  (48) 
(1S,4S)-4-(3,4-dichlorophenyl)-N-methyl-1,2,3,4-tetrahydronaphthalen-1-amine

>  <PUBCHEM_IUPAC_SYSTEMATIC_NAME>  (48) 
(1S,4S)-4-(3,4-dichlorophenyl)-N-methyl-1,2,3,4-tetrahydronaphthalen-1-amine

>  <PUBCHEM_IUPAC_TRADITIONAL_NAME>  (48) 
[(1S,4S)-4-(3,4-dichlorophenyl)tetralin-1-yl]-methyl-amine

>  <PUBCHEM_IUPAC_INCHI>  (48) 
InChI=1S/C17H17Cl2N/c1-20-17-9-7-12(13-4-2-3-5-14(13)17)11-6-8-15(18)16(19)10-11/h2-6,8,10,12,17,20H,7,9H2,1H3/t12-,17-/m0/s1

>  <PUBCHEM_IUPAC_INCHIKEY>  (48) 
VGKDLMBJGBXTGI-SJCJKPOMSA-N

>  <PUBCHEM_XLOGP3_AA>  (48) 
4.8

>  <PUBCHEM_EXACT_MASS>  (48) 
305.0738049

>  <PUBCHEM_MOLECULAR_FORMULA>  (48) 
C17H17Cl2N

>  <PUBCHEM_MOLECULAR_WEIGHT>  (48) 
306.2

>  <PUBCHEM_SMILES>  (48) 
CN[C@H]1CC[C@H](C2=CC=CC=C12)C3=CC(=C(C=C3)Cl)Cl

>  <PUBCHEM_CONNECTIVITY_SMILES>  (48) 
CNC1CCC(C2=CC=CC=C12)C3=CC(=C(C=C3)Cl)Cl

>  <PUBCHEM_CACTVS_TPSA>  (48) 
12

>  <PUBCHEM_MONOISOTOPIC_WEIGHT>  (48) 
305.0738049

>  <PUBCHEM_TOTAL_CHARGE>  (48) 
0

>  <PUBCHEM_HEAVY_ATOM_COUNT>  (48) 
20

>  <PUBCHEM_ATOM_DEF_STEREO_COUNT>  (48) 
2

>  <PUBCHEM_ATOM_UDEF_STEREO_COUNT>  (48) 
0

>  <PUBCHEM_BOND_DEF_STEREO_COUNT>  (48) 
0

>  <PUBCHEM_BOND_UDEF_STEREO_COUNT>  (48) 
0

>  <PUBCHEM_ISOTOPIC_ATOM_COUNT>  (48) 
0

>  <PUBCHEM_COMPONENT_COUNT>  (48) 
1

>  <PUBCHEM_CACTVS_TAUTO_COUNT>  (48) 
-1

>  <PUBCHEM_COORDINATE_TYPE>  (48) 
1
5
255

>  <PUBCHEM_BONDANNOTATIONS>  (48) 
10  13  8
10  14  8
11  15  8
12  16  8
13  18  8
14  19  8
15  16  8
18  20  8
19  20  8
6  3  6
4  10  6
8  11  8
8  9  8
9  12  8

$$$$
84029
     RDKit          2D

 52 54  0  0  1  0  0  0  0  0999 V2000
    5.4641   -0.9472    0.0000 O   0  0  0  0  0  0  0  0  0  0  0  0
    7.1962   -0.9472    0.0000 O   0  0  0  0  0  0  0  0  0  0  0  0
    3.6322    0.8117    0.0000 O   0  0  0  0  0  0  0  0  0  0  0  0
    3.7321   -0.9472    0.0000 O   0  0  0  0  0  0  0  0  0  0  0  0
    8.9282   -0.9472    0.0000 O   0  0  0  0  0  0  0  0  0  0  0  0
    8.9282    2.0528    0.0000 O   0  0  0  0  0  0  0  0  0  0  0  0
    9.4282   -3.8132    0.0000 O   0  0  0  0  0  0  0  0  0  0  0  0
    5.4641   -2.9472    0.0000 O   0  0  0  0  0  0  0  0  0  0  0  0
   10.6603   -2.9472    0.0000 O   0  0  0  0  0  0  0  0  0  0  0  0
    8.3210    4.5188    0.0000 O   0  0  0  0  0  0  0  0  0  0  0  0
    7.8390    2.2869    0.0000 O   0  0  0  0  0  0  0  0  0  0  0  0
    4.5981    3.5528    0.0000 O   0  0  0  0  0  0  0  0  0  0  0  0
    7.1962    2.0528    0.0000 O   0  0  0  0  0  0  0  0  0  0  0  0
    3.7321   -3.9472    0.0000 N   0  0  0  0  0  0  0  0  0  0  0  0
    5.4641    0.0528    0.0000 C   0  0  0  0  0  0  0  0  0  0  0  0
    6.3301    0.5528    0.0000 C   0  0  0  0  0  0  0  0  0  0  0  0
    4.5981    0.5528    0.0000 C   0  0  0  0  0  0  0  0  0  0  0  0
    7.1962    0.0528    0.0000 C   0  0  0  0  0  0  0  0  0  0  0  0
    4.5981    1.5528    0.0000 C   0  0  0  0  0  0  0  0  0  0  0  0
    8.0622    0.5528    0.0000 C   0  0  0  0  0  0  0  0  0  0  0  0
    5.4641    2.0528    0.0000 C   0  0  0  0  0  0  0  0  0  0  0  0
    4.5981   -1.4472    0.0000 C   0  0  0  0  0  0  0  0  0  0  0  0
    6.3301    1.5528    0.0000 C   0  0  0  0  0  0  0  0  0  0  0  0
    3.8910   -0.1543    0.0000 C   0  0  0  0  0  0  0  0  0  0  0  0
    8.0622   -1.4472    0.0000 C   0  0  0  0  0  0  0  0  0  0  0  0
    4.5981   -2.4472    0.0000 C   0  0  0  0  0  0  0  0  0  0  0  0
    8.9282   -2.9472    0.0000 C   0  0  0  0  0  0  0  0  0  0  0  0
    3.7321   -2.9472    0.0000 C   0  0  0  0  0  0  0  0  0  0  0  0
    8.0622   -2.4472    0.0000 C   0  0  0  0  0  0  0  0  0  0  0  0
    9.7942   -2.4472    0.0000 C   0  0  0  0  0  0  0  0  0  0  0  0
    6.3301    3.5528    0.0000 C   0  0  0  0  0  0  0  0  0  0  0  0
    8.0622    3.5528    0.0000 C   0  0  0  0  0  0  0  0  0  0  0  0
    2.8660   -2.4472    0.0000 C   0  0  0  0  0  0  0  0  0  0  0  0
    7.1962    3.0528    0.0000 C   0  0  0  0  0  0  0  0  0  0  0  0
    5.4641    3.0528    0.0000 C   0  0  0  0  0  0  0  0  0  0  0  0
    9.7942   -1.4472    0.0000 C   0  0  0  0  0  0  0  0  0  0  0  0
    2.8660   -1.4472    0.0000 C   0  0  0  0  0  0  0  0  0  0  0  0
    8.9282    3.0528    0.0000 C   0  0  0  0  0  0  0  0  0  0  0  0
    8.0622    1.5528    0.0000 C   0  0  0  0  0  0  0  0  0  0  0  0
    8.9282    0.0528    0.0000 C   0  0  0  0  0  0  0  0  0  0  0  0
    5.4641    1.0528    0.0000 C   0  0  0  0  0  0  0  0  0  0  0  0
    8.4282   -3.8132    0.0000 C   0  0  0  0  0  0  0  0  0  0  0  0
    6.3301    4.5528    0.0000 C   0  0  0  0  0  0  0  0  0  0  0  0
    7.4886    4.3720    0.0000 C   0  0  0  0  0  0  0  0  0  0  0  0
    9.7942    3.5528    0.0000 C   0  0  0  0  0  0  0  0  0  0  0  0
    3.3733    1.7776    0.0000 C   0  0  0  0  0  0  0  0  0  0  0  0
   10.6603   -0.9472    0.0000 C   0  0  0  0  0  0  0  0  0  0  0  0
    2.0000   -0.9472    0.0000 C   0  0  0  0  0  0  0  0  0  0  0  0
    2.8660   -4.4472    0.0000 C   0  0  0  0  0  0  0  0  0  0  0  0
    4.5981   -4.4472    0.0000 C   0  0  0  0  0  0  0  0  0  0  0  0
   10.6603    3.0528    0.0000 C   0  0  0  0  0  0  0  0  0  0  0  0
    8.9282   -4.6792    0.0000 C   0  0  0  0  0  0  0  0  0  0  0  0
 15  1  1  1
 22  1  1  1
 18  2  1  1
 25  2  1  6
 17  3  1  0
  3 46  1  0
  4 22  1  0
  4 37  1  0
  5 25  1  0
  5 36  1  0
  6 38  1  0
  6 39  1  0
 27  7  1  0
  7 52  1  0
 26  8  1  6
 30  9  1  6
 32 10  1  0
 34 11  1  6
 12 35  2  0
 13 39  2  0
 28 14  1  1
 14 49  1  0
 14 50  1  0
 15 16  1  0
 15 17  1  0
 16 18  1  0
 16 23  1  1
 17 19  1  0
 17 24  1  1
 18 20  1  0
 19 21  1  0
 20 39  1  0
 20 40  1  6
 21 35  1  0
 21 41  1  6
 22 26  1  0
 25 29  1  0
 26 28  1  0
 27 29  1  0
 27 30  1  0
 27 42  1  1
 28 33  1  0
 30 36  1  0
 31 34  1  0
 31 35  1  0
 31 43  1  6
 32 34  1  0
 32 38  1  0
 32 44  1  1
 33 37  1  0
 36 47  1  1
 37 48  1  1
 38 45  1  1
 45 51  1  0
M  END
>  <PUBCHEM_COMPOUND_CID>  (49) 
84029

>  <PUBCHEM_COMPOUND_CANONICALIZED>  (49) 
1

>  <PUBCHEM_CACTVS_COMPLEXITY>  (49) 
1190

>  <PUBCHEM_CACTVS_HBOND_ACCEPTOR>  (49) 
14

>  <PUBCHEM_CACTVS_HBOND_DONOR>  (49) 
4

>  <PUBCHEM_CACTVS_ROTATABLE_BOND>  (49) 
8

>  <PUBCHEM_CACTVS_SUBSKEYS>  (49) 
AAADcfB+PAAAAAAAAAAAAAAAAAAAAAAAAAAkSAAAAAAAAAAAAAAAHgAACAAADXzxgAcCCAMABgAIAICQCAAAAAAAAAAAAAEIAAATEBYAgAAmQAAHIAAXAAHK7PzOAAAAAAAAAAAAAAAAAAAAAAAAAAAAAA==

>  <PUBCHEM_IUPAC_OPENEYE_NAME>  (49) 
(3R,4S,5S,6R,7R,9R,11R,12R,13S,14R)-6-[(2S,3R,4S,6R)-4-(dimethylamino)-3-hydroxy-6-methyl-tetrahydropyran-2-yl]oxy-14-ethyl-12,13-dihydroxy-4-[(2R,4R,5S,6S)-5-hydroxy-4-methoxy-4,6-dimethyl-tetrahydropyran-2-yl]oxy-7-methoxy-3,5,7,9,11,13-hexamethyl-oxacyclotetradecane-2,10-dione

>  <PUBCHEM_IUPAC_CAS_NAME>  (49) 
(3R,4S,5S,6R,7R,9R,11R,12R,13S,14R)-6-[[(2S,3R,4S,6R)-4-(dimethylamino)-3-hydroxy-6-methyl-2-oxanyl]oxy]-14-ethyl-12,13-dihydroxy-4-[[(2R,4R,5S,6S)-5-hydroxy-4-methoxy-4,6-dimethyl-2-oxanyl]oxy]-7-methoxy-3,5,7,9,11,13-hexamethyl-oxacyclotetradecane-2,10-dione

>  <PUBCHEM_IUPAC_NAME_MARKUP>  (49) 
(3<I>R</I>,4<I>S</I>,5<I>S</I>,6<I>R</I>,7<I>R</I>,9<I>R</I>,11<I>R</I>,12<I>R</I>,13<I>S</I>,14<I>R</I>)-6-[(2<I>S</I>,3<I>R</I>,4<I>S</I>,6<I>R</I>)-4-(dimethylamino)-3-hydroxy-6-methyloxan-2-yl]oxy-14-ethyl-12,13-dihydroxy-4-[(2<I>R</I>,4<I>R</I>,5<I>S</I>,6<I>S</I>)-5-hydroxy-4-methoxy-4,6-dimethyloxan-2-yl]oxy-7-methoxy-3,5,7,9,11,13-hexamethyl-oxacyclotetradecane-2,10-dione

>  <PUBCHEM_IUPAC_NAME>  (49) 
(3R,4S,5S,6R,7R,9R,11R,12R,13S,14R)-6-[(2S,3R,4S,6R)-4-(dimethylamino)-3-hydroxy-6-methyloxan-2-yl]oxy-14-ethyl-12,13-dihydroxy-4-[(2R,4R,5S,6S)-5-hydroxy-4-methoxy-4,6-dimethyloxan-2-yl]oxy-7-methoxy-3,5,7,9,11,13-hexamethyl-oxacyclotetradecane-2,10-dione

>  <PUBCHEM_IUPAC_SYSTEMATIC_NAME>  (49) 
(3R,4S,5S,6R,7R,9R,11R,12R,13S,14R)-6-[(2S,3R,4S,6R)-4-(dimethylamino)-6-methyl-3-oxidanyl-oxan-2-yl]oxy-14-ethyl-7-methoxy-4-[(2R,4R,5S,6S)-4-methoxy-4,6-dimethyl-5-oxidanyl-oxan-2-yl]oxy-3,5,7,9,11,13-hexamethyl-12,13-bis(oxidanyl)-1-oxacyclotetradecane-2,10-dione

>  <PUBCHEM_IUPAC_TRADITIONAL_NAME>  (49) 
(3R,4S,5S,6R,7R,9R,11R,12R,13S,14R)-6-[(2S,3R,4S,6R)-4-(dimethylamino)-3-hydroxy-6-methyl-tetrahydropyran-2-yl]oxy-14-ethyl-12,13-dihydroxy-4-[(2R,4R,5S,6S)-5-hydroxy-4-methoxy-4,6-dimethyl-tetrahydropyran-2-yl]oxy-7-methoxy-3,5,7,9,11,13-hexamethyl-oxacyclotetradecane-2,10-quinone

>  <PUBCHEM_IUPAC_INCHI>  (49) 
InChI=1S/C38H69NO13/c1-15-26-38(10,45)31(42)21(4)28(40)19(2)17-37(9,47-14)33(52-35-29(41)25(39(11)12)16-20(3)48-35)22(5)30(23(6)34(44)50-26)51-27-18-36(8,46-13)32(43)24(7)49-27/h19-27,29-33,35,41-43,45H,15-18H2,1-14H3/t19-,20-,21+,22+,23-,24+,25+,26-,27+,29-,30+,31-,32+,33-,35+,36-,37-,38-/m1/s1

>  <PUBCHEM_IUPAC_INCHIKEY>  (49) 
AGOYDEPGAOXOCK-KCBOHYOISA-N

>  <PUBCHEM_XLOGP3>  (49) 
3.2

>  <PUBCHEM_EXACT_MASS>  (49) 
747.47689126

>  <PUBCHEM_MOLECULAR_FORMULA>  (49) 
C38H69NO13

>  <PUBCHEM_MOLECULAR_WEIGHT>  (49) 
748.0

>  <PUBCHEM_SMILES>  (49) 
CC[C@@H]1[C@@]([C@@H]([C@H](C(=O)[C@@H](C[C@@]([C@@H]([C@H]([C@@H]([C@H](C(=O)O1)C)O[C@H]2C[C@@]([C@H]([C@@H](O2)C)O)(C)OC)C)O[C@H]3[C@@H]([C@H](C[C@H](O3)C)N(C)C)O)(C)OC)C)C)O)(C)O

>  <PUBCHEM_CONNECTIVITY_SMILES>  (49) 
CCC1C(C(C(C(=O)C(CC(C(C(C(C(C(=O)O1)C)OC2CC(C(C(O2)C)O)(C)OC)C)OC3C(C(CC(O3)C)N(C)C)O)(C)OC)C)C)O)(C)O

>  <PUBCHEM_CACTVS_TPSA>  (49) 
183

>  <PUBCHEM_MONOISOTOPIC_WEIGHT>  (49) 
747.47689126

>  <PUBCHEM_TOTAL_CHARGE>  (49) 
0

>  <PUBCHEM_HEAVY_ATOM_COUNT>  (49) 
52

>  <PUBCHEM_ATOM_DEF_STEREO_COUNT>  (49) 
18

>  <PUBCHEM_ATOM_UDEF_STEREO_COUNT>  (49) 
0

>  <PUBCHEM_BOND_DEF_STEREO_COUNT>  (49) 
0

>  <PUBCHEM_BOND_UDEF_STEREO_COUNT>  (49) 
0

>  <PUBCHEM_ISOTOPIC_ATOM_COUNT>  (49) 
0

>  <PUBCHEM_COMPONENT_COUNT>  (49) 
1

>  <PUBCHEM_CACTVS_TAUTO_COUNT>  (49) 
-1

>  <PUBCHEM_COORDINATE_TYPE>  (49) 
1
5
255

>  <PUBCHEM_BONDANNOTATIONS>  (49) 
15  1  5
22  1  5
32  10  6
34  11  6
28  14  5
16  23  5
18  2  5
25  2  6
20  40  6
21  41  6
17  3  6
31  43  6
36  47  5
37  48  5
38  45  5
27  7  6
26  8  6
30  9  6

$$$$
9579489
     RDKit          2D

 25 26  0  0  0  0  0  0  0  0999 V2000
    2.0000   -3.5000    0.0000 Cl  0  0  0  0  0  0  0  0  0  0  0  0
    2.0000   -5.5000    0.0000 Cl  0  0  0  0  0  0  0  0  0  0  0  0
    5.4641   -2.5000    0.0000 S   0  0  0  0  0  0  0  0  0  0  0  0
    4.5981    1.0000    0.0000 S   0  0  0  0  0  0  0  0  0  0  0  0
    3.7320   -2.5000    0.0000 N   0  0  0  0  0  0  0  0  0  0  0  0
    4.5981   -1.0000    0.0000 N   0  0  0  0  0  0  0  0  0  0  0  0
    5.4641   -0.5000    0.0000 N   0  0  0  0  0  0  0  0  0  0  0  0
    6.3301    4.0000    0.0000 N   0  0  0  0  0  0  0  0  0  0  0  0
    6.3301    2.0000    0.0000 N   0  0  0  0  0  0  0  0  0  0  0  0
    6.3301    1.0000    0.0000 N   0  0  0  0  0  0  0  0  0  0  0  0
    3.7320   -3.5000    0.0000 C   0  0  0  0  0  0  0  0  0  0  0  0
    2.8660   -4.0000    0.0000 C   0  0  0  0  0  0  0  0  0  0  0  0
    4.5981   -4.0000    0.0000 C   0  0  0  0  0  0  0  0  0  0  0  0
    7.1962    3.5000    0.0000 C   0  0  0  0  0  0  0  0  0  0  0  0
    7.1962    2.5000    0.0000 C   0  0  0  0  0  0  0  0  0  0  0  0
    2.8660   -5.0000    0.0000 C   0  0  0  0  0  0  0  0  0  0  0  0
    4.5981   -5.0000    0.0000 C   0  0  0  0  0  0  0  0  0  0  0  0
    3.7320   -5.5000    0.0000 C   0  0  0  0  0  0  0  0  0  0  0  0
    4.5981   -2.0000    0.0000 C   0  0  0  0  0  0  0  0  0  0  0  0
    8.0622    4.0000    0.0000 C   0  0  0  0  0  0  0  0  0  0  0  0
    8.0622    2.0000    0.0000 C   0  0  0  0  0  0  0  0  0  0  0  0
    8.0622    5.0000    0.0000 C   0  0  0  0  0  0  0  0  0  0  0  0
    7.1962    5.5000    0.0000 C   0  0  0  0  0  0  0  0  0  0  0  0
    6.3301    5.0000    0.0000 C   0  0  0  0  0  0  0  0  0  0  0  0
    5.4641    0.5000    0.0000 C   0  0  0  0  0  0  0  0  0  0  0  0
  1 12  1  0
  2 16  1  0
  3 19  2  0
  4 25  2  0
  5 11  1  0
  5 19  1  0
  6  7  1  0
  6 19  1  0
  7 25  1  0
  8 14  2  0
  8 24  1  0
  9 10  1  0
  9 15  2  0
 10 25  1  0
 11 12  2  0
 11 13  1  0
 12 16  1  0
 13 17  2  0
 14 15  1  0
 14 20  1  0
 15 21  1  0
 16 18  2  0
 17 18  1  0
 20 22  2  0
 22 23  1  0
 23 24  2  0
M  END
>  <PUBCHEM_COMPOUND_CID>  (50) 
9579489

>  <PUBCHEM_COMPOUND_CANONICALIZED>  (50) 
1

>  <PUBCHEM_CACTVS_COMPLEXITY>  (50) 
504

>  <PUBCHEM_CACTVS_HBOND_ACCEPTOR>  (50) 
4

>  <PUBCHEM_CACTVS_HBOND_DONOR>  (50) 
4

>  <PUBCHEM_CACTVS_ROTATABLE_BOND>  (50) 
3

>  <PUBCHEM_CACTVS_SUBSKEYS>  (50) 
AAADccBzgABmAAAAAAAAAAAAAAAAAAAAAAA8QAAAAAAAAAABwAAAHAYYAAAACArBFiQ/wJLqEACkATRnRACSgCAxBysM+mA4ZpiIIOLBk5HEIAhwmALIyCcQgAAAAAAAAAIAABQAAAAABAAAKAAAAAAAAA==

>  <PUBCHEM_IUPAC_OPENEYE_NAME>  (50) 
1-(2,3-dichlorophenyl)-3-[[(E)-1-(2-pyridyl)ethylideneamino]carbamothioylamino]thiourea

>  <PUBCHEM_IUPAC_CAS_NAME>  (50) 
1-[[(2,3-dichloroanilino)-sulfanylidenemethyl]amino]-3-[(E)-1-(2-pyridinyl)ethylideneamino]thiourea

>  <PUBCHEM_IUPAC_NAME_MARKUP>  (50) 
1-(2,3-dichlorophenyl)-3-[[(<I>E</I>)-1-pyridin-2-ylethylideneamino]carbamothioylamino]thiourea

>  <PUBCHEM_IUPAC_NAME>  (50) 
1-(2,3-dichlorophenyl)-3-[[(E)-1-pyridin-2-ylethylideneamino]carbamothioylamino]thiourea

>  <PUBCHEM_IUPAC_SYSTEMATIC_NAME>  (50) 
1-[2,3-bis(chloranyl)phenyl]-3-[[(E)-1-pyridin-2-ylethylideneamino]carbamothioylamino]thiourea

>  <PUBCHEM_IUPAC_TRADITIONAL_NAME>  (50) 
1-(2,3-dichlorophenyl)-3-[[(E)-1-(2-pyridyl)ethylideneamino]thiocarbamoylamino]thiourea

>  <PUBCHEM_IUPAC_INCHI>  (50) 
InChI=1S/C15H14Cl2N6S2/c1-9(11-6-2-3-8-18-11)20-22-15(25)23-21-14(24)19-12-7-4-5-10(16)13(12)17/h2-8H,1H3,(H2,19,21,24)(H2,22,23,25)/b20-9+

>  <PUBCHEM_IUPAC_INCHIKEY>  (50) 
BTPAIFZOWFEFBZ-AWQFTUOYSA-N

>  <PUBCHEM_XLOGP3>  (50) 
3.9

>  <PUBCHEM_EXACT_MASS>  (50) 
412.0098422

>  <PUBCHEM_MOLECULAR_FORMULA>  (50) 
C15H14Cl2N6S2

>  <PUBCHEM_MOLECULAR_WEIGHT>  (50) 
413.3

>  <PUBCHEM_SMILES>  (50) 
C/C(=N\NC(=S)NNC(=S)NC1=C(C(=CC=C1)Cl)Cl)/C2=CC=CC=N2

>  <PUBCHEM_CONNECTIVITY_SMILES>  (50) 
CC(=NNC(=S)NNC(=S)NC1=C(C(=CC=C1)Cl)Cl)C2=CC=CC=N2

>  <PUBCHEM_CACTVS_TPSA>  (50) 
138

>  <PUBCHEM_MONOISOTOPIC_WEIGHT>  (50) 
412.0098422

>  <PUBCHEM_TOTAL_CHARGE>  (50) 
0

>  <PUBCHEM_HEAVY_ATOM_COUNT>  (50) 
25

>  <PUBCHEM_ATOM_DEF_STEREO_COUNT>  (50) 
0

>  <PUBCHEM_ATOM_UDEF_STEREO_COUNT>  (50) 
0

>  <PUBCHEM_BOND_DEF_STEREO_COUNT>  (50) 
1

>  <PUBCHEM_BOND_UDEF_STEREO_COUNT>  (50) 
0

>  <PUBCHEM_ISOTOPIC_ATOM_COUNT>  (50) 
0

>  <PUBCHEM_COMPONENT_COUNT>  (50) 
1

>  <PUBCHEM_CACTVS_TAUTO_COUNT>  (50) 
-1

>  <PUBCHEM_COORDINATE_TYPE>  (50) 
1
5
255

>  <PUBCHEM_BONDANNOTATIONS>  (50) 
11  12  8
11  13  8
12  16  8
13  17  8
14  20  8
16  18  8
17  18  8
20  22  8
22  23  8
23  24  8
8  14  8
8  24  8

$$$$
