1018
     RDKit          2D

  9  9  0  0  0  0  0  0  0  0999 V2000
    2.5369   -0.0000    0.0000 O   0  0  0  0  0  0  0  0  0  0  0  0
    3.4030   -1.5000    0.0000 O   0  0  0  0  0  0  0  0  0  0  0  0
    5.1350   -0.5000    0.0000 N   0  0  0  0  0  0  0  0  0  0  0  0
    4.2690   -0.0000    0.0000 C   0  0  0  0  0  0  0  0  0  0  0  0
    4.2690    1.0000    0.0000 C   0  0  0  0  0  0  0  0  0  0  0  0
    5.1350    1.5000    0.0000 C   0  0  0  0  0  0  0  0  0  0  0  0
    6.0010    1.0000    0.0000 C   0  0  0  0  0  0  0  0  0  0  0  0
    6.0010    0.0000    0.0000 C   0  0  0  0  0  0  0  0  0  0  0  0
    3.4030   -0.5000    0.0000 C   0  0  0  0  0  0  0  0  0  0  0  0
  1  9  1  0
  2  9  2  0
  3  4  2  0
  3  8  1  0
  4  5  1  0
  4  9  1  0
  5  6  2  0
  6  7  1  0
  7  8  2  0
M  END
>  <PUBCHEM_COMPOUND_CID>  (1) 
1018

>  <PUBCHEM_COMPOUND_CANONICALIZED>  (1) 
1

>  <PUBCHEM_CACTVS_COMPLEXITY>  (1) 
114

>  <PUBCHEM_CACTVS_HBOND_ACCEPTOR>  (1) 
3

>  <PUBCHEM_CACTVS_HBOND_DONOR>  (1) 
1

>  <PUBCHEM_CACTVS_ROTATABLE_BOND>  (1) 
1

>  <PUBCHEM_CACTVS_SUBSKEYS>  (1) 
AAADcYBiMAAAAAAAAAAAAAAAAAAAAAAAAAAsAAAAAAAAAAABgAAAHgAACAAACAjBlgQ8iJIIEgCoATT3TASCgCA3AiAI2CG4bNgKJvLAlbGEcQhkwAHY2YeYSAAAAAAAAAAAAAAAAAAAAAAAAAAAAAAAAA==

>  <PUBCHEM_IUPAC_OPENEYE_NAME>  (1) 
pyridine-2-carboxylic acid

>  <PUBCHEM_IUPAC_CAS_NAME>  (1) 
2-pyridinecarboxylic acid

>  <PUBCHEM_IUPAC_NAME_MARKUP>  (1) 
pyridine-2-carboxylic acid

>  <PUBCHEM_IUPAC_NAME>  (1) 
pyridine-2-carboxylic acid

>  <PUBCHEM_IUPAC_SYSTEMATIC_NAME>  (1) 
pyridine-2-carboxylic acid

>  <PUBCHEM_IUPAC_TRADITIONAL_NAME>  (1) 
picolinic acid

>  <PUBCHEM_IUPAC_INCHI>  (1) 
InChI=1S/C6H5NO2/c8-6(9)5-3-1-2-4-7-5/h1-4H,(H,8,9)

>  <PUBCHEM_IUPAC_INCHIKEY>  (1) 
SIOXPEMLGUPBBT-UHFFFAOYSA-N

>  <PUBCHEM_XLOGP3>  (1) 
0.8

>  <PUBCHEM_EXACT_MASS>  (1) 
123.032028402

>  <PUBCHEM_MOLECULAR_FORMULA>  (1) 
C6H5NO2

>  <PUBCHEM_MOLECULAR_WEIGHT>  (1) 
123.11

>  <PUBCHEM_SMILES>  (1) 
C1=CC=NC(=C1)C(=O)O

>  <PUBCHEM_CONNECTIVITY_SMILES>  (1) 
C1=CC=NC(=C1)C(=O)O

>  <PUBCHEM_CACTVS_TPSA>  (1) 
50.2

>  <PUBCHEM_MONOISOTOPIC_WEIGHT>  (1) 
123.032028402

>  <PUBCHEM_TOTAL_CHARGE>  (1) 
0

>  <PUBCHEM_HEAVY_ATOM_COUNT>  (1) 
9

>  <PUBCHEM_ATOM_DEF_STEREO_COUNT>  (1) 
0

>  <PUBCHEM_ATOM_UDEF_STEREO_COUNT>  (1) 
0

>  <PUBCHEM_BOND_DEF_STEREO_COUNT>  (1) 
0

>  <PUBCHEM_BOND_UDEF_STEREO_COUNT>  (1) 
0

>  <PUBCHEM_ISOTOPIC_ATOM_COUNT>  (1) 
0

>  <PUBCHEM_COMPONENT_COUNT>  (1) 
1

>  <PUBCHEM_CACTVS_TAUTO_COUNT>  (1) 
-1

>  <PUBCHEM_COORDINATE_TYPE>  (1) 
1
5
255

>  <PUBCHEM_BONDANNOTATIONS>  (1) 
3  4  8
3  8  8
4  5  8
5  6  8
6  7  8
7  8  8

$$$$
1121
     RDKit          2D

 64 63  0  0  1  0  0  0  0  0999 V2000
   40.9711   -0.2685    0.0000 P   0  0  0  0  0  0  0  0  0  0  0  0
   42.7032   -0.2685    0.0000 P   0  0  0  0  0  0  0  0  0  0  0  0
   40.1051   -0.7685    0.0000 O   0  0  0  0  0  0  0  0  0  0  0  0
   41.8372    0.2315    0.0000 O   0  0  0  0  0  0  0  0  0  0  0  0
   40.4711    0.5976    0.0000 O   0  0  0  0  0  0  0  0  0  0  0  0
   41.4711   -1.1345    0.0000 O   0  0  0  0  0  0  0  0  0  0  0  0
   43.5692   -0.7685    0.0000 O   0  0  0  0  0  0  0  0  0  0  0  0
   43.2032    0.5976    0.0000 O   0  0  0  0  0  0  0  0  0  0  0  0
   42.2032   -1.1345    0.0000 O   0  0  0  0  0  0  0  0  0  0  0  0
   22.7846   -0.7685    0.0000 C   0  0  0  0  0  0  0  0  0  0  0  0
   19.3205   -0.7685    0.0000 C   0  0  0  0  0  0  0  0  0  0  0  0
   26.2487   -0.7685    0.0000 C   0  0  0  0  0  0  0  0  0  0  0  0
   15.8564   -0.7685    0.0000 C   0  0  0  0  0  0  0  0  0  0  0  0
   21.9186   -0.2685    0.0000 C   0  0  0  0  0  0  0  0  0  0  0  0
   18.4545   -0.2685    0.0000 C   0  0  0  0  0  0  0  0  0  0  0  0
   25.3827   -0.2685    0.0000 C   0  0  0  0  0  0  0  0  0  0  0  0
   14.9904   -0.2685    0.0000 C   0  0  0  0  0  0  0  0  0  0  0  0
   20.1865   -0.2685    0.0000 C   0  0  0  0  0  0  0  0  0  0  0  0
   23.6506   -0.2685    0.0000 C   0  0  0  0  0  0  0  0  0  0  0  0
   12.3923   -0.7685    0.0000 C   0  0  0  0  0  0  0  0  0  0  0  0
   29.7128   -0.7685    0.0000 C   0  0  0  0  0  0  0  0  0  0  0  0
   16.7224   -0.2685    0.0000 C   0  0  0  0  0  0  0  0  0  0  0  0
   28.8468   -0.2685    0.0000 C   0  0  0  0  0  0  0  0  0  0  0  0
   27.1147   -0.2685    0.0000 C   0  0  0  0  0  0  0  0  0  0  0  0
   11.5263   -0.2685    0.0000 C   0  0  0  0  0  0  0  0  0  0  0  0
   13.2583   -0.2685    0.0000 C   0  0  0  0  0  0  0  0  0  0  0  0
   21.0526   -0.7685    0.0000 C   0  0  0  0  0  0  0  0  0  0  0  0
   17.5885   -0.7685    0.0000 C   0  0  0  0  0  0  0  0  0  0  0  0
   24.5167   -0.7685    0.0000 C   0  0  0  0  0  0  0  0  0  0  0  0
   30.5788   -0.2685    0.0000 C   0  0  0  0  0  0  0  0  0  0  0  0
   14.1244   -0.7685    0.0000 C   0  0  0  0  0  0  0  0  0  0  0  0
   27.9808   -0.7685    0.0000 C   0  0  0  0  0  0  0  0  0  0  0  0
   32.3109   -0.2685    0.0000 C   0  0  0  0  0  0  0  0  0  0  0  0
    8.9282   -0.7685    0.0000 C   0  0  0  0  0  0  0  0  0  0  0  0
   33.1769   -0.7685    0.0000 C   0  0  0  0  0  0  0  0  0  0  0  0
    9.7942   -0.2685    0.0000 C   0  0  0  0  0  0  0  0  0  0  0  0
   10.6603   -0.7685    0.0000 C   0  0  0  0  0  0  0  0  0  0  0  0
   31.4449   -0.7685    0.0000 C   0  0  0  0  0  0  0  0  0  0  0  0
    8.0622   -0.2685    0.0000 C   0  0  0  0  0  0  0  0  0  0  0  0
   34.0429   -0.2685    0.0000 C   0  0  0  0  0  0  0  0  0  0  0  0
   20.1865    0.7315    0.0000 C   0  0  0  0  0  0  0  0  0  0  0  0
   23.6506    0.7315    0.0000 C   0  0  0  0  0  0  0  0  0  0  0  0
   16.7224    0.7315    0.0000 C   0  0  0  0  0  0  0  0  0  0  0  0
   27.1147    0.7315    0.0000 C   0  0  0  0  0  0  0  0  0  0  0  0
   13.2583    0.7315    0.0000 C   0  0  0  0  0  0  0  0  0  0  0  0
    7.1962   -0.7685    0.0000 C   0  0  0  0  0  0  0  0  0  0  0  0
   30.5788    0.7315    0.0000 C   0  0  0  0  0  0  0  0  0  0  0  0
   35.7750   -0.2685    0.0000 C   0  0  0  0  0  0  0  0  0  0  0  0
    6.3301   -0.2685    0.0000 C   0  0  0  0  0  0  0  0  0  0  0  0
   34.9090   -0.7685    0.0000 C   0  0  0  0  0  0  0  0  0  0  0  0
    5.4641   -0.7685    0.0000 C   0  0  0  0  0  0  0  0  0  0  0  0
    9.7942    0.7315    0.0000 C   0  0  0  0  0  0  0  0  0  0  0  0
   36.6410   -0.7685    0.0000 C   0  0  0  0  0  0  0  0  0  0  0  0
   34.0429    0.7315    0.0000 C   0  0  0  0  0  0  0  0  0  0  0  0
    4.5981   -0.2685    0.0000 C   0  0  0  0  0  0  0  0  0  0  0  0
   37.5070   -0.2685    0.0000 C   0  0  0  0  0  0  0  0  0  0  0  0
    6.3301    0.7315    0.0000 C   0  0  0  0  0  0  0  0  0  0  0  0
    3.7320   -0.7685    0.0000 C   0  0  0  0  0  0  0  0  0  0  0  0
   37.5070    0.7315    0.0000 C   0  0  0  0  0  0  0  0  0  0  0  0
   38.3731   -0.7685    0.0000 C   0  0  0  0  0  0  0  0  0  0  0  0
    2.8660   -0.2685    0.0000 C   0  0  0  0  0  0  0  0  0  0  0  0
   39.2391   -0.2685    0.0000 C   0  0  0  0  0  0  0  0  0  0  0  0
    2.0000   -0.7685    0.0000 C   0  0  0  0  0  0  0  0  0  0  0  0
    2.8660    0.7315    0.0000 C   0  0  0  0  0  0  0  0  0  0  0  0
  1  3  1  0
  1  4  1  0
  1  5  1  0
  1  6  2  0
  2  4  1  0
  2  7  1  0
  2  8  1  0
  2  9  2  0
  3 62  1  0
 10 14  1  0
 10 19  1  0
 11 15  1  0
 11 18  1  0
 12 16  1  0
 12 24  1  0
 13 17  1  0
 13 22  1  0
 14 27  1  0
 15 28  1  0
 16 29  1  0
 17 31  1  0
 18 27  2  3
 18 41  1  0
 19 29  2  3
 19 42  1  0
 20 25  1  0
 20 26  1  0
 21 23  1  0
 21 30  1  0
 22 28  2  3
 22 43  1  0
 23 32  1  0
 24 32  2  3
 24 44  1  0
 25 37  1  0
 26 31  2  3
 26 45  1  0
 30 38  2  3
 30 47  1  0
 33 35  1  0
 33 38  1  0
 34 36  1  0
 34 39  1  0
 35 40  1  0
 36 37  2  3
 36 52  1  0
 39 46  1  0
 40 50  2  3
 40 54  1  0
 46 49  2  3
 48 50  1  0
 48 53  1  0
 49 51  1  0
 49 57  1  0
 51 55  1  0
 53 56  1  0
 55 58  1  0
 56 59  1  0
 56 60  2  3
 58 61  2  0
 60 62  1  0
 61 63  1  0
 61 64  1  0
M  END
>  <PUBCHEM_COMPOUND_CID>  (2) 
1121

>  <PUBCHEM_COMPOUND_CANONICALIZED>  (2) 
1

>  <PUBCHEM_CACTVS_COMPLEXITY>  (2) 
1800

>  <PUBCHEM_CACTVS_HBOND_ACCEPTOR>  (2) 
7

>  <PUBCHEM_CACTVS_HBOND_DONOR>  (2) 
3

>  <PUBCHEM_CACTVS_ROTATABLE_BOND>  (2) 
35

>  <PUBCHEM_CACTVS_SUBSKEYS>  (2) 
AAADcfB8OAMAAAAAAAAAAAAAAAAAAAAAAAAAAAAAAAAAAAAAAAAAGgAACCAADACggAICAAAAARCAQiBCAIAAAAAgAAAACAAAAAgABAIAAQAAEAAAgAAIAAIAAAAAAAAAAAAAAAAAAAAAAAAAAAAAAAAAAA==

>  <PUBCHEM_IUPAC_OPENEYE_NAME>  (2) 
phosphono 3,7,11,15,19,23,27,31,35,39,43-undecamethyltetratetraconta-2,6,10,14,18,22,26,30,34,38,42-undecaenyl hydrogen phosphate

>  <PUBCHEM_IUPAC_CAS_NAME>  (2) 
phosphono 3,7,11,15,19,23,27,31,35,39,43-undecamethyltetratetraconta-2,6,10,14,18,22,26,30,34,38,42-undecaenyl hydrogen phosphate

>  <PUBCHEM_IUPAC_NAME_MARKUP>  (2) 
phosphono 3,7,11,15,19,23,27,31,35,39,43-undecamethyltetratetraconta-2,6,10,14,18,22,26,30,34,38,42-undecaenyl hydrogen phosphate

>  <PUBCHEM_IUPAC_NAME>  (2) 
phosphono 3,7,11,15,19,23,27,31,35,39,43-undecamethyltetratetraconta-2,6,10,14,18,22,26,30,34,38,42-undecaenyl hydrogen phosphate

>  <PUBCHEM_IUPAC_SYSTEMATIC_NAME>  (2) 
phosphono 3,7,11,15,19,23,27,31,35,39,43-undecamethyltetratetraconta-2,6,10,14,18,22,26,30,34,38,42-undecaenyl hydrogen phosphate

>  <PUBCHEM_IUPAC_TRADITIONAL_NAME>  (2) 
phosphono 3,7,11,15,19,23,27,31,35,39,43-undecamethyltetratetraconta-2,6,10,14,18,22,26,30,34,38,42-undecaenyl hydrogen phosphate

>  <PUBCHEM_IUPAC_INCHI>  (2) 
InChI=1S/C55H92O7P2/c1-45(2)23-13-24-46(3)25-14-26-47(4)27-15-28-48(5)29-16-30-49(6)31-17-32-50(7)33-18-34-51(8)35-19-36-52(9)37-20-38-53(10)39-21-40-54(11)41-22-42-55(12)43-44-61-64(59,60)62-63(56,57)58/h23,25,27,29,31,33,35,37,39,41,43H,13-22,24,26,28,30,32,34,36,38,40,42,44H2,1-12H3,(H,59,60)(H2,56,57,58)

>  <PUBCHEM_IUPAC_INCHIKEY>  (2) 
NTXGVHCCXVHYCL-UHFFFAOYSA-N

>  <PUBCHEM_XLOGP3_AA>  (2) 
17.4

>  <PUBCHEM_EXACT_MASS>  (2) 
926.63182926

>  <PUBCHEM_MOLECULAR_FORMULA>  (2) 
C55H92O7P2

>  <PUBCHEM_MOLECULAR_WEIGHT>  (2) 
927.3

>  <PUBCHEM_SMILES>  (2) 
CC(=CCCC(=CCCC(=CCCC(=CCCC(=CCCC(=CCCC(=CCCC(=CCCC(=CCCC(=CCCC(=CCOP(=O)(O)OP(=O)(O)O)C)C)C)C)C)C)C)C)C)C)C

>  <PUBCHEM_CONNECTIVITY_SMILES>  (2) 
CC(=CCCC(=CCCC(=CCCC(=CCCC(=CCCC(=CCCC(=CCCC(=CCCC(=CCCC(=CCCC(=CCOP(=O)(O)OP(=O)(O)O)C)C)C)C)C)C)C)C)C)C)C

>  <PUBCHEM_CACTVS_TPSA>  (2) 
113

>  <PUBCHEM_MONOISOTOPIC_WEIGHT>  (2) 
926.63182926

>  <PUBCHEM_TOTAL_CHARGE>  (2) 
0

>  <PUBCHEM_HEAVY_ATOM_COUNT>  (2) 
64

>  <PUBCHEM_ATOM_DEF_STEREO_COUNT>  (2) 
0

>  <PUBCHEM_ATOM_UDEF_STEREO_COUNT>  (2) 
0

>  <PUBCHEM_BOND_DEF_STEREO_COUNT>  (2) 
0

>  <PUBCHEM_BOND_UDEF_STEREO_COUNT>  (2) 
10

>  <PUBCHEM_ISOTOPIC_ATOM_COUNT>  (2) 
0

>  <PUBCHEM_COMPONENT_COUNT>  (2) 
1

>  <PUBCHEM_CACTVS_TAUTO_COUNT>  (2) 
-1

>  <PUBCHEM_COORDINATE_TYPE>  (2) 
1
5
255

>  <PUBCHEM_BONDANNOTATIONS>  (2) 
18  27  1
19  29  1
22  28  1
24  32  1
26  31  1
30  38  1
36  37  1
40  50  1
46  49  1
56  60  1

$$$$
1189
     RDKit          2D

 20 22  0  0  1  0  0  0  0  0999 V2000
    5.2686    0.7369    0.0000 O   0  0  0  0  0  0  0  0  0  0  0  0
    7.6146   -0.3550    0.0000 O   0  0  0  0  0  0  0  0  0  0  0  0
    7.6183    1.8206    0.0000 O   0  0  0  0  0  0  0  0  0  0  0  0
    6.2208    3.2384    0.0000 O   0  0  0  0  0  0  0  0  0  0  0  0
    3.7320   -3.8284    0.0000 O   0  0  0  0  0  0  0  0  0  0  0  0
    2.0000   -0.8284    0.0000 O   0  0  0  0  0  0  0  0  0  0  0  0
    5.5443   -1.0237    0.0000 N   0  0  0  0  0  0  0  0  0  0  0  0
    3.7320   -0.8284    0.0000 N   0  0  0  0  0  0  0  0  0  0  0  0
    5.5443   -2.6332    0.0000 N   0  0  0  0  0  0  0  0  0  0  0  0
    2.8660   -2.3284    0.0000 N   0  0  0  0  0  0  0  0  0  0  0  0
    5.8550   -0.0732    0.0000 C   0  0  0  0  0  0  0  0  0  0  0  0
    6.8066    0.2342    0.0000 C   0  0  0  0  0  0  0  0  0  0  0  0
    6.8083    1.2342    0.0000 C   0  0  0  0  0  0  0  0  0  0  0  0
    5.8578    1.5449    0.0000 C   0  0  0  0  0  0  0  0  0  0  0  0
    5.5504    2.4964    0.0000 C   0  0  0  0  0  0  0  0  0  0  0  0
    4.5981   -1.3284    0.0000 C   0  0  0  0  0  0  0  0  0  0  0  0
    6.1279   -1.8284    0.0000 C   0  0  0  0  0  0  0  0  0  0  0  0
    4.5981   -2.3284    0.0000 C   0  0  0  0  0  0  0  0  0  0  0  0
    3.7320   -2.8284    0.0000 C   0  0  0  0  0  0  0  0  0  0  0  0
    2.8660   -1.3284    0.0000 C   0  0  0  0  0  0  0  0  0  0  0  0
  1 11  1  0
  1 14  1  0
  2 12  1  0
  3 13  1  0
  4 15  1  0
  5 19  2  0
  6 20  2  0
  7 11  1  0
  7 16  1  0
  7 17  1  0
  8 16  1  0
  8 20  1  0
  9 17  2  0
  9 18  1  0
 10 19  1  0
 10 20  1  0
 11 12  1  0
 12 13  1  0
 13 14  1  0
 14 15  1  0
 16 18  2  0
 18 19  1  0
M  END
>  <PUBCHEM_COMPOUND_CID>  (3) 
1189

>  <PUBCHEM_COMPOUND_CANONICALIZED>  (3) 
1

>  <PUBCHEM_CACTVS_COMPLEXITY>  (3) 
434

>  <PUBCHEM_CACTVS_HBOND_ACCEPTOR>  (3) 
7

>  <PUBCHEM_CACTVS_HBOND_DONOR>  (3) 
5

>  <PUBCHEM_CACTVS_ROTATABLE_BOND>  (3) 
2

>  <PUBCHEM_CACTVS_SUBSKEYS>  (3) 
AAADccBzuAAAAAAAAAAAAAAAAAAAAWJAAAAsAAAAAAAAAFgBgAAAHgAQCAAACBzhlgYFsBfMFgCoAQdxdACAgC0XEKABUAGoVECDWApAyCAeQIgPBSLTAGDwMAIAAAAAAAAAAAAAAAAAAAAAAAAAAAAAAA==

>  <PUBCHEM_IUPAC_OPENEYE_NAME>  (3) 
9-[3,4-dihydroxy-5-(hydroxymethyl)tetrahydrofuran-2-yl]-3H-purine-2,6-dione

>  <PUBCHEM_IUPAC_CAS_NAME>  (3) 
9-[3,4-dihydroxy-5-(hydroxymethyl)-2-oxolanyl]-3H-purine-2,6-dione

>  <PUBCHEM_IUPAC_NAME_MARKUP>  (3) 
9-[3,4-dihydroxy-5-(hydroxymethyl)oxolan-2-yl]-3<I>H</I>-purine-2,6-dione

>  <PUBCHEM_IUPAC_NAME>  (3) 
9-[3,4-dihydroxy-5-(hydroxymethyl)oxolan-2-yl]-3H-purine-2,6-dione

>  <PUBCHEM_IUPAC_SYSTEMATIC_NAME>  (3) 
9-[5-(hydroxymethyl)-3,4-bis(oxidanyl)oxolan-2-yl]-3H-purine-2,6-dione

>  <PUBCHEM_IUPAC_TRADITIONAL_NAME>  (3) 
9-(3,4-dihydroxy-5-methylol-tetrahydrofuran-2-yl)xanthine

>  <PUBCHEM_IUPAC_INCHI>  (3) 
InChI=1S/C10H12N4O6/c15-1-3-5(16)6(17)9(20-3)14-2-11-4-7(14)12-10(19)13-8(4)18/h2-3,5-6,9,15-17H,1H2,(H2,12,13,18,19)

>  <PUBCHEM_IUPAC_INCHIKEY>  (3) 
UBORTCNDUKBEOP-UHFFFAOYSA-N

>  <PUBCHEM_XLOGP3>  (3) 
-2.4

>  <PUBCHEM_EXACT_MASS>  (3) 
284.07568412

>  <PUBCHEM_MOLECULAR_FORMULA>  (3) 
C10H12N4O6

>  <PUBCHEM_MOLECULAR_WEIGHT>  (3) 
284.23

>  <PUBCHEM_SMILES>  (3) 
C1=NC2=C(N1C3C(C(C(O3)CO)O)O)NC(=O)NC2=O

>  <PUBCHEM_CONNECTIVITY_SMILES>  (3) 
C1=NC2=C(N1C3C(C(C(O3)CO)O)O)NC(=O)NC2=O

>  <PUBCHEM_CACTVS_TPSA>  (3) 
146

>  <PUBCHEM_MONOISOTOPIC_WEIGHT>  (3) 
284.07568412

>  <PUBCHEM_TOTAL_CHARGE>  (3) 
0

>  <PUBCHEM_HEAVY_ATOM_COUNT>  (3) 
20

>  <PUBCHEM_ATOM_DEF_STEREO_COUNT>  (3) 
0

>  <PUBCHEM_ATOM_UDEF_STEREO_COUNT>  (3) 
4

>  <PUBCHEM_BOND_DEF_STEREO_COUNT>  (3) 
0

>  <PUBCHEM_BOND_UDEF_STEREO_COUNT>  (3) 
0

>  <PUBCHEM_ISOTOPIC_ATOM_COUNT>  (3) 
0

>  <PUBCHEM_COMPONENT_COUNT>  (3) 
1

>  <PUBCHEM_CACTVS_TAUTO_COUNT>  (3) 
-1

>  <PUBCHEM_COORDINATE_TYPE>  (3) 
1
5
255

>  <PUBCHEM_BONDANNOTATIONS>  (3) 
10  19  8
10  20  8
14  15  3
16  18  8
18  19  8
12  2  3
13  3  3
11  7  3
7  16  8
7  17  8
8  16  8
8  20  8
9  17  8
9  18  8

$$$$
123
     RDKit          2D

 10  9  0  0  0  0  0  0  0  0999 V2000
    7.7331    1.4050    0.0000 O   0  0  0  0  0  0  0  0  0  0  0  0
    4.2690    0.4050    0.0000 N   0  0  0  0  0  0  0  0  0  0  0  0
    8.5991   -0.0950    0.0000 N   0  0  0  0  0  0  0  0  0  0  0  0
    2.5369    0.4050    0.0000 N   0  0  0  0  0  0  0  0  0  0  0  0
    3.4030   -1.0950    0.0000 N   0  0  0  0  0  0  0  0  0  0  0  0
    6.0010    0.4050    0.0000 C   0  0  0  0  0  0  0  0  0  0  0  0
    6.8671   -0.0950    0.0000 C   0  0  0  0  0  0  0  0  0  0  0  0
    5.1350   -0.0950    0.0000 C   0  0  0  0  0  0  0  0  0  0  0  0
    7.7331    0.4050    0.0000 C   0  0  0  0  0  0  0  0  0  0  0  0
    3.4030   -0.0950    0.0000 C   0  0  0  0  0  0  0  0  0  0  0  0
  1  9  2  0
  2  8  1  0
  2 10  2  0
  3  9  1  0
  4 10  1  0
  5 10  1  0
  6  7  1  0
  6  8  1  0
  7  9  1  0
M  END
>  <PUBCHEM_COMPOUND_CID>  (4) 
123

>  <PUBCHEM_COMPOUND_CANONICALIZED>  (4) 
1

>  <PUBCHEM_CACTVS_COMPLEXITY>  (4) 
139

>  <PUBCHEM_CACTVS_HBOND_ACCEPTOR>  (4) 
2

>  <PUBCHEM_CACTVS_HBOND_DONOR>  (4) 
3

>  <PUBCHEM_CACTVS_ROTATABLE_BOND>  (4) 
4

>  <PUBCHEM_CACTVS_SUBSKEYS>  (4) 
AAADccBjoAAAAAAAAAAAAAAAAAAAAAAAAAAAAAAAAAAAAAAAAAAAHgAQAAAACADBgAQBAAJAAAAoAAEQNAAAAAEAAAAAAAEAAAAAABAAgAAAAAAAEAAAAAAEAAAAAAAAAAAAAAAAAAAAAAAAAAAAAAAAAA==

>  <PUBCHEM_IUPAC_OPENEYE_NAME>  (4) 
4-guanidinobutanamide

>  <PUBCHEM_IUPAC_CAS_NAME>  (4) 
4-(diaminomethylideneamino)butanamide

>  <PUBCHEM_IUPAC_NAME_MARKUP>  (4) 
4-(diaminomethylideneamino)butanamide

>  <PUBCHEM_IUPAC_NAME>  (4) 
4-(diaminomethylideneamino)butanamide

>  <PUBCHEM_IUPAC_SYSTEMATIC_NAME>  (4) 
4-[bis(azanyl)methylideneamino]butanamide

>  <PUBCHEM_IUPAC_TRADITIONAL_NAME>  (4) 
4-guanidinobutyramide

>  <PUBCHEM_IUPAC_INCHI>  (4) 
InChI=1S/C5H12N4O/c6-4(10)2-1-3-9-5(7)8/h1-3H2,(H2,6,10)(H4,7,8,9)

>  <PUBCHEM_IUPAC_INCHIKEY>  (4) 
YHVFECVVGNXFKO-UHFFFAOYSA-N

>  <PUBCHEM_XLOGP3_AA>  (4) 
-2.1

>  <PUBCHEM_EXACT_MASS>  (4) 
144.10111102

>  <PUBCHEM_MOLECULAR_FORMULA>  (4) 
C5H12N4O

>  <PUBCHEM_MOLECULAR_WEIGHT>  (4) 
144.18

>  <PUBCHEM_SMILES>  (4) 
C(CC(=O)N)CN=C(N)N

>  <PUBCHEM_CONNECTIVITY_SMILES>  (4) 
C(CC(=O)N)CN=C(N)N

>  <PUBCHEM_CACTVS_TPSA>  (4) 
107

>  <PUBCHEM_MONOISOTOPIC_WEIGHT>  (4) 
144.10111102

>  <PUBCHEM_TOTAL_CHARGE>  (4) 
0

>  <PUBCHEM_HEAVY_ATOM_COUNT>  (4) 
10

>  <PUBCHEM_ATOM_DEF_STEREO_COUNT>  (4) 
0

>  <PUBCHEM_ATOM_UDEF_STEREO_COUNT>  (4) 
0

>  <PUBCHEM_BOND_DEF_STEREO_COUNT>  (4) 
0

>  <PUBCHEM_BOND_UDEF_STEREO_COUNT>  (4) 
0

>  <PUBCHEM_ISOTOPIC_ATOM_COUNT>  (4) 
0

>  <PUBCHEM_COMPONENT_COUNT>  (4) 
1

>  <PUBCHEM_CACTVS_TAUTO_COUNT>  (4) 
-1

>  <PUBCHEM_COORDINATE_TYPE>  (4) 
1
5
255

$$$$
1312
     RDKit          2D

 29 32  0  0  1  0  0  0  0  0999 V2000
   10.5148   -0.8243    0.0000 P   0  0  0  0  0  0  0  0  0  0  0  0
   11.5304   -2.2273    0.0000 P   0  0  0  0  0  0  0  0  0  0  0  0
    7.7194    0.4886    0.0000 O   0  0  0  0  0  0  0  0  0  0  0  0
    6.8872    2.9387    0.0000 O   0  0  0  0  0  0  0  0  0  0  0  0
    9.0505    2.7076    0.0000 O   0  0  0  0  0  0  0  0  0  0  0  0
    9.6019   -0.4159    0.0000 O   0  0  0  0  0  0  0  0  0  0  0  0
   11.4276   -1.2326    0.0000 O   0  0  0  0  0  0  0  0  0  0  0  0
   10.1064   -1.7371    0.0000 O   0  0  0  0  0  0  0  0  0  0  0  0
   10.9231    0.0886    0.0000 O   0  0  0  0  0  0  0  0  0  0  0  0
   11.6332   -3.2220    0.0000 O   0  0  0  0  0  0  0  0  0  0  0  0
   12.5251   -2.1245    0.0000 O   0  0  0  0  0  0  0  0  0  0  0  0
   10.5357   -2.3301    0.0000 O   0  0  0  0  0  0  0  0  0  0  0  0
    5.9989    0.9528    0.0000 N   0  0  0  0  0  0  0  0  0  0  0  0
    4.6051    0.1480    0.0000 N   0  0  0  0  0  0  0  0  0  0  0  0
    5.2619    2.6199    0.0000 N   0  0  0  0  0  0  0  0  0  0  0  0
    3.5298    2.6199    0.0000 N   0  0  0  0  0  0  0  0  0  0  0  0
    2.5836    1.3151    0.0000 N   0  0  0  0  0  0  0  0  0  0  0  0
    7.3857    2.0718    0.0000 C   0  0  0  0  0  0  0  0  0  0  0  0
    6.9774    1.1590    0.0000 C   0  0  0  0  0  0  0  0  0  0  0  0
    8.3801    1.9656    0.0000 C   0  0  0  0  0  0  0  0  0  0  0  0
    8.5863    0.9871    0.0000 C   0  0  0  0  0  0  0  0  0  0  0  0
    9.4991    0.5788    0.0000 C   0  0  0  0  0  0  0  0  0  0  0  0
    5.2619    1.6199    0.0000 C   0  0  0  0  0  0  0  0  0  0  0  0
    5.5938    0.0450    0.0000 C   0  0  0  0  0  0  0  0  0  0  0  0
    4.3958    1.1199    0.0000 C   0  0  0  0  0  0  0  0  0  0  0  0
    3.5298    1.6199    0.0000 C   0  0  0  0  0  0  0  0  0  0  0  0
    4.3958    3.1199    0.0000 C   0  0  0  0  0  0  0  0  0  0  0  0
    2.5836    2.9246    0.0000 C   0  0  0  0  0  0  0  0  0  0  0  0
    2.0000    2.1199    0.0000 C   0  0  0  0  0  0  0  0  0  0  0  0
  1  6  1  0
  1  7  1  0
  1  8  1  0
  1  9  2  0
  2  7  1  0
  2 10  1  0
  2 11  1  0
  2 12  2  0
  3 19  1  0
  3 21  1  0
  4 18  1  0
  5 20  1  0
  6 22  1  0
 13 19  1  0
 13 23  1  0
 13 24  1  0
 14 24  2  0
 14 25  1  0
 15 23  1  0
 15 27  2  0
 16 26  1  0
 16 27  1  0
 16 28  1  0
 17 26  2  0
 17 29  1  0
 18 19  1  0
 18 20  1  0
 20 21  1  0
 21 22  1  0
 23 25  2  0
 25 26  1  0
 28 29  2  0
M  END
>  <PUBCHEM_COMPOUND_CID>  (5) 
1312

>  <PUBCHEM_COMPOUND_CANONICALIZED>  (5) 
1

>  <PUBCHEM_CACTVS_COMPLEXITY>  (5) 
713

>  <PUBCHEM_CACTVS_HBOND_ACCEPTOR>  (5) 
13

>  <PUBCHEM_CACTVS_HBOND_DONOR>  (5) 
5

>  <PUBCHEM_CACTVS_ROTATABLE_BOND>  (5) 
6

>  <PUBCHEM_CACTVS_SUBSKEYS>  (5) 
AAADccBzvAMAAAAAAAAAAAAAAAAAAWLEgAAsAAAAAAAAAFgB+AAAHgAACCAACBzhlwYt8L8MHxCgQRZnZICAgC0REqAJUCA4dBCDWEJAyEAeRAgPAALTACDwMAIAAAAAAAAAAAAAAAAAAAAAAAAAAAAAAA==

>  <PUBCHEM_IUPAC_OPENEYE_NAME>  (5) 
(3,4-dihydroxy-5-imidazo[2,1-f]purin-3-yl-tetrahydrofuran-2-yl)methyl phosphono hydrogen phosphate

>  <PUBCHEM_IUPAC_CAS_NAME>  (5) 
[3,4-dihydroxy-5-(3-imidazo[2,1-f]purinyl)-2-oxolanyl]methyl phosphono hydrogen phosphate

>  <PUBCHEM_IUPAC_NAME_MARKUP>  (5) 
(3,4-dihydroxy-5-imidazo[2,1-f]purin-3-yloxolan-2-yl)methyl phosphono hydrogen phosphate

>  <PUBCHEM_IUPAC_NAME>  (5) 
(3,4-dihydroxy-5-imidazo[2,1-f]purin-3-yloxolan-2-yl)methyl phosphono hydrogen phosphate

>  <PUBCHEM_IUPAC_SYSTEMATIC_NAME>  (5) 
[5-imidazo[2,1-f]purin-3-yl-3,4-bis(oxidanyl)oxolan-2-yl]methyl phosphono hydrogen phosphate

>  <PUBCHEM_IUPAC_TRADITIONAL_NAME>  (5) 
(3,4-dihydroxy-5-imidazo[2,1-f]purin-3-yl-tetrahydrofuran-2-yl)methyl phosphono hydrogen phosphate

>  <PUBCHEM_IUPAC_INCHI>  (5) 
InChI=1S/C12H15N5O10P2/c18-8-6(3-25-29(23,24)27-28(20,21)22)26-12(9(8)19)17-5-14-7-10-13-1-2-16(10)4-15-11(7)17/h1-2,4-6,8-9,12,18-19H,3H2,(H,23,24)(H2,20,21,22)

>  <PUBCHEM_IUPAC_INCHIKEY>  (5) 
OWCTWNCXGDVJGX-UHFFFAOYSA-N

>  <PUBCHEM_XLOGP3>  (5) 
-3.4

>  <PUBCHEM_EXACT_MASS>  (5) 
451.02941569

>  <PUBCHEM_MOLECULAR_FORMULA>  (5) 
C12H15N5O10P2

>  <PUBCHEM_MOLECULAR_WEIGHT>  (5) 
451.22

>  <PUBCHEM_SMILES>  (5) 
C1=CN2C=NC3=C(C2=N1)N=CN3C4C(C(C(O4)COP(=O)(O)OP(=O)(O)O)O)O

>  <PUBCHEM_CONNECTIVITY_SMILES>  (5) 
C1=CN2C=NC3=C(C2=N1)N=CN3C4C(C(C(O4)COP(=O)(O)OP(=O)(O)O)O)O

>  <PUBCHEM_CACTVS_TPSA>  (5) 
211

>  <PUBCHEM_MONOISOTOPIC_WEIGHT>  (5) 
451.02941569

>  <PUBCHEM_TOTAL_CHARGE>  (5) 
0

>  <PUBCHEM_HEAVY_ATOM_COUNT>  (5) 
29

>  <PUBCHEM_ATOM_DEF_STEREO_COUNT>  (5) 
0

>  <PUBCHEM_ATOM_UDEF_STEREO_COUNT>  (5) 
4

>  <PUBCHEM_BOND_DEF_STEREO_COUNT>  (5) 
0

>  <PUBCHEM_BOND_UDEF_STEREO_COUNT>  (5) 
0

>  <PUBCHEM_ISOTOPIC_ATOM_COUNT>  (5) 
0

>  <PUBCHEM_COMPONENT_COUNT>  (5) 
1

>  <PUBCHEM_CACTVS_TAUTO_COUNT>  (5) 
-1

>  <PUBCHEM_COORDINATE_TYPE>  (5) 
1
5
255

>  <PUBCHEM_BONDANNOTATIONS>  (5) 
19  13  3
13  23  8
13  24  8
14  24  8
14  25  8
15  23  8
15  27  8
16  26  8
16  27  8
16  28  8
17  26  8
17  29  8
21  22  3
23  25  8
25  26  8
28  29  8
18  4  3
20  5  3

$$$$
1410
     RDKit          2D

 37 41  0  0  1  0  0  0  0  0999 V2000
    6.0010   -0.9435    0.0000 O   0  0  0  0  0  0  0  0  0  0  0  0
    4.2690   -0.9435    0.0000 O   0  0  0  0  0  0  0  0  0  0  0  0
    7.2925   -3.8691    0.0000 O   0  0  0  0  0  0  0  0  0  0  0  0
    2.5369   -2.9435    0.0000 O   0  0  0  0  0  0  0  0  0  0  0  0
    6.8878    0.5637    0.0000 O   0  0  0  0  0  0  0  0  0  0  0  0
    7.8058   -4.7273    0.0000 O   0  0  0  0  0  0  0  0  0  0  0  0
    7.7143    2.1049    0.0000 O   0  0  0  0  0  0  0  0  0  0  0  0
   11.2616    0.1112    0.0000 O   0  0  0  0  0  0  0  0  0  0  0  0
    8.5769    3.7276    0.0000 O   0  0  0  0  0  0  0  0  0  0  0  0
    4.2690   -3.9435    0.0000 N   0  0  0  0  0  0  0  0  0  0  0  0
    6.8671   -1.4435    0.0000 C   0  0  0  0  0  0  0  0  0  0  0  0
    7.7791   -2.9954    0.0000 C   0  0  0  0  0  0  0  0  0  0  0  0
    6.8711   -2.4851    0.0000 C   0  0  0  0  0  0  0  0  0  0  0  0
    8.6710   -2.4574    0.0000 C   0  0  0  0  0  0  0  0  0  0  0  0
    7.7711   -0.9261    0.0000 C   0  0  0  0  0  0  0  0  0  0  0  0
    8.6429   -1.4161    0.0000 C   0  0  0  0  0  0  0  0  0  0  0  0
    5.1350   -1.4435    0.0000 C   0  0  0  0  0  0  0  0  0  0  0  0
    4.2690   -2.9435    0.0000 C   0  0  0  0  0  0  0  0  0  0  0  0
    5.1350   -2.4435    0.0000 C   0  0  0  0  0  0  0  0  0  0  0  0
    3.4030   -2.4435    0.0000 C   0  0  0  0  0  0  0  0  0  0  0  0
    3.4030   -1.4435    0.0000 C   0  0  0  0  0  0  0  0  0  0  0  0
    7.7596    0.0738    0.0000 C   0  0  0  0  0  0  0  0  0  0  0  0
    8.2924   -3.8537    0.0000 C   0  0  0  0  0  0  0  0  0  0  0  0
    9.5031   -0.9061    0.0000 C   0  0  0  0  0  0  0  0  0  0  0  0
    8.6198    0.5838    0.0000 C   0  0  0  0  0  0  0  0  0  0  0  0
    9.4915    0.0938    0.0000 C   0  0  0  0  0  0  0  0  0  0  0  0
    2.5369   -0.9435    0.0000 C   0  0  0  0  0  0  0  0  0  0  0  0
    9.2923   -3.8382    0.0000 C   0  0  0  0  0  0  0  0  0  0  0  0
    8.5917    1.6250    0.0000 C   0  0  0  0  0  0  0  0  0  0  0  0
   10.3956    0.6112    0.0000 C   0  0  0  0  0  0  0  0  0  0  0  0
    9.4835    2.1631    0.0000 C   0  0  0  0  0  0  0  0  0  0  0  0
   10.3916    1.6528    0.0000 C   0  0  0  0  0  0  0  0  0  0  0  0
    9.4543    3.2477    0.0000 C   0  0  0  0  0  0  0  0  0  0  0  0
   11.3333    2.1916    0.0000 C   0  0  0  0  0  0  0  0  0  0  0  0
   10.3833    3.8082    0.0000 C   0  0  0  0  0  0  0  0  0  0  0  0
   11.3291    3.2766    0.0000 C   0  0  0  0  0  0  0  0  0  0  0  0
    8.5538    4.7273    0.0000 C   0  0  0  0  0  0  0  0  0  0  0  0
  1 11  1  0
  1 17  1  0
  2 17  1  0
  2 21  1  0
  3 12  1  0
  4 20  1  0
  5 22  1  0
  6 23  2  0
  7 29  2  0
  8 30  2  0
  9 33  1  0
  9 37  1  0
 10 18  1  0
 11 13  1  0
 11 15  1  0
 12 13  1  0
 12 14  1  0
 12 23  1  0
 14 16  1  0
 15 16  2  0
 15 22  1  0
 16 24  1  0
 17 19  1  0
 18 19  1  0
 18 20  1  0
 20 21  1  0
 21 27  1  0
 22 25  2  0
 23 28  1  0
 24 26  2  0
 25 26  1  0
 25 29  1  0
 26 30  1  0
 29 31  1  0
 30 32  1  0
 31 32  2  0
 31 33  1  0
 32 34  1  0
 33 35  2  0
 34 36  2  0
 35 36  1  0
M  END
>  <PUBCHEM_COMPOUND_CID>  (6) 
1410

>  <PUBCHEM_COMPOUND_CANONICALIZED>  (6) 
1

>  <PUBCHEM_CACTVS_COMPLEXITY>  (6) 
928

>  <PUBCHEM_CACTVS_HBOND_ACCEPTOR>  (6) 
10

>  <PUBCHEM_CACTVS_HBOND_DONOR>  (6) 
4

>  <PUBCHEM_CACTVS_ROTATABLE_BOND>  (6) 
4

>  <PUBCHEM_CACTVS_SUBSKEYS>  (6) 
AAADceB6PAAAAAAAAAAAAAAAAAAAAAAAAAA0YMGCAAAAAADBQAAAHgAQCAAADHzxmAcyDoBABgCIAqBSAAICCAAkIAAIiIFGCMgfNzaGtRqicWAn8BEPuYfL7PzOwAADAAAYAADAAAYQADAAAAAAAAAAAA==

>  <PUBCHEM_IUPAC_OPENEYE_NAME>  (6) 
9-acetyl-7-(4-amino-5-hydroxy-6-methyl-tetrahydropyran-2-yl)oxy-6,9-dihydroxy-4-methoxy-8,10-dihydro-7H-tetracene-5,12-dione

>  <PUBCHEM_IUPAC_CAS_NAME>  (6) 
9-acetyl-7-[(4-amino-5-hydroxy-6-methyl-2-oxanyl)oxy]-6,9-dihydroxy-4-methoxy-8,10-dihydro-7H-tetracene-5,12-dione

>  <PUBCHEM_IUPAC_NAME_MARKUP>  (6) 
9-acetyl-7-(4-amino-5-hydroxy-6-methyloxan-2-yl)oxy-6,9-dihydroxy-4-methoxy-8,10-dihydro-7<I>H</I>-tetracene-5,12-dione

>  <PUBCHEM_IUPAC_NAME>  (6) 
9-acetyl-7-(4-amino-5-hydroxy-6-methyloxan-2-yl)oxy-6,9-dihydroxy-4-methoxy-8,10-dihydro-7H-tetracene-5,12-dione

>  <PUBCHEM_IUPAC_SYSTEMATIC_NAME>  (6) 
7-(4-azanyl-6-methyl-5-oxidanyl-oxan-2-yl)oxy-9-ethanoyl-4-methoxy-6,9-bis(oxidanyl)-8,10-dihydro-7H-tetracene-5,12-dione

>  <PUBCHEM_IUPAC_TRADITIONAL_NAME>  (6) 
9-acetyl-7-(4-amino-5-hydroxy-6-methyl-tetrahydropyran-2-yl)oxy-6,9-dihydroxy-4-methoxy-8,10-dihydro-7H-tetracene-5,12-quinone

>  <PUBCHEM_IUPAC_INCHI>  (6) 
InChI=1S/C27H29NO9/c1-11-23(30)16(28)8-19(36-11)37-18-10-27(34,12(2)29)9-13-7-15-22(25(32)20(13)18)26(33)21-14(24(15)31)5-4-6-17(21)35-3/h4-7,11,16,18-19,23,30,32,34H,8-10,28H2,1-3H3

>  <PUBCHEM_IUPAC_INCHIKEY>  (6) 
ZCLQMQOBRBUQOR-UHFFFAOYSA-N

>  <PUBCHEM_XLOGP3>  (6) 
1.6

>  <PUBCHEM_EXACT_MASS>  (6) 
511.18423150

>  <PUBCHEM_MOLECULAR_FORMULA>  (6) 
C27H29NO9

>  <PUBCHEM_MOLECULAR_WEIGHT>  (6) 
511.5

>  <PUBCHEM_SMILES>  (6) 
CC1C(C(CC(O1)OC2CC(CC3=CC4=C(C(=C23)O)C(=O)C5=C(C4=O)C=CC=C5OC)(C(=O)C)O)N)O

>  <PUBCHEM_CONNECTIVITY_SMILES>  (6) 
CC1C(C(CC(O1)OC2CC(CC3=CC4=C(C(=C23)O)C(=O)C5=C(C4=O)C=CC=C5OC)(C(=O)C)O)N)O

>  <PUBCHEM_CACTVS_TPSA>  (6) 
166

>  <PUBCHEM_MONOISOTOPIC_WEIGHT>  (6) 
511.18423150

>  <PUBCHEM_TOTAL_CHARGE>  (6) 
0

>  <PUBCHEM_HEAVY_ATOM_COUNT>  (6) 
37

>  <PUBCHEM_ATOM_DEF_STEREO_COUNT>  (6) 
0

>  <PUBCHEM_ATOM_UDEF_STEREO_COUNT>  (6) 
6

>  <PUBCHEM_BOND_DEF_STEREO_COUNT>  (6) 
0

>  <PUBCHEM_BOND_UDEF_STEREO_COUNT>  (6) 
0

>  <PUBCHEM_ISOTOPIC_ATOM_COUNT>  (6) 
0

>  <PUBCHEM_COMPONENT_COUNT>  (6) 
1

>  <PUBCHEM_CACTVS_TAUTO_COUNT>  (6) 
-1

>  <PUBCHEM_COORDINATE_TYPE>  (6) 
1
5
255

>  <PUBCHEM_BONDANNOTATIONS>  (6) 
11  1  3
17  1  3
18  10  3
15  16  8
15  22  8
16  24  8
21  27  3
22  25  8
24  26  8
25  26  8
12  3  3
31  32  8
31  33  8
32  34  8
33  35  8
34  36  8
35  36  8
20  4  3

$$$$
1432
     RDKit          2D

 22 24  0  0  1  0  0  0  0  0999 V2000
    6.6408   -3.1477    0.0000 Br  0  0  0  0  0  0  0  0  0  0  0  0
    4.0330    2.4123    0.0000 S   0  0  0  0  0  0  0  0  0  0  0  0
    8.6475   -2.7372    0.0000 O   0  0  0  0  0  0  0  0  0  0  0  0
    2.6777    0.9416    0.0000 N   0  0  0  0  0  0  0  0  0  0  0  0
    3.2484   -1.0009    0.0000 N   0  0  0  0  0  0  0  0  0  0  0  0
    5.7758    0.1233    0.0000 N   0  0  0  0  0  0  0  0  0  0  0  0
    3.6534    0.7224    0.0000 C   0  0  0  0  0  0  0  0  0  0  0  0
    3.9514   -0.2322    0.0000 C   0  0  0  0  0  0  0  0  0  0  0  0
    4.9668   -0.4644    0.0000 C   0  0  0  0  0  0  0  0  0  0  0  0
    5.2758   -1.4155    0.0000 C   0  0  0  0  0  0  0  0  0  0  0  0
    4.3310    1.4577    0.0000 C   0  0  0  0  0  0  0  0  0  0  0  0
    6.2758   -1.4155    0.0000 C   0  0  0  0  0  0  0  0  0  0  0  0
    6.5848   -0.4644    0.0000 C   0  0  0  0  0  0  0  0  0  0  0  0
    4.5908   -2.2002    0.0000 C   0  0  0  0  0  0  0  0  0  0  0  0
    3.5703   -1.9915    0.0000 C   0  0  0  0  0  0  0  0  0  0  0  0
    2.3797    1.8962    0.0000 C   0  0  0  0  0  0  0  0  0  0  0  0
    2.0000    0.2062    0.0000 C   0  0  0  0  0  0  0  0  0  0  0  0
    6.9608   -2.2002    0.0000 C   0  0  0  0  0  0  0  0  0  0  0  0
    7.6002   -0.2322    0.0000 C   0  0  0  0  0  0  0  0  0  0  0  0
    7.9813   -1.9915    0.0000 C   0  0  0  0  0  0  0  0  0  0  0  0
    8.3031   -1.0009    0.0000 C   0  0  0  0  0  0  0  0  0  0  0  0
    4.7107    3.1477    0.0000 C   0  0  0  0  0  0  0  0  0  0  0  0
  1 18  1  0
  2 11  1  0
  2 22  1  0
  3 20  1  0
  4  7  1  0
  4 16  1  0
  4 17  1  0
  5  8  1  0
  5 15  1  0
  6  9  1  0
  6 13  2  0
  7  8  1  0
  7 11  1  0
  8  9  2  0
  9 10  1  0
 10 12  2  0
 10 14  1  0
 12 13  1  0
 12 18  1  0
 13 19  1  0
 14 15  2  0
 18 20  2  0
 19 21  2  0
 20 21  1  0
M  END
>  <PUBCHEM_COMPOUND_CID>  (7) 
1432

>  <PUBCHEM_COMPOUND_CANONICALIZED>  (7) 
1

>  <PUBCHEM_CACTVS_COMPLEXITY>  (7) 
386

>  <PUBCHEM_CACTVS_HBOND_ACCEPTOR>  (7) 
4

>  <PUBCHEM_CACTVS_HBOND_DONOR>  (7) 
2

>  <PUBCHEM_CACTVS_ROTATABLE_BOND>  (7) 
4

>  <PUBCHEM_CACTVS_SUBSKEYS>  (7) 
AAADceB7IABAEAAAAAAAAAAAAAAAAWAAAAA8QAAAAAAAAFgBwAAAHgRQCAABrCzF3gS+xvPJkgigAzRnRACCgCQxMjQI2aA+fLgIZuLi0JOUcAhk0BHI2hew0PMOgEABAAEChAAAgAIAAgUIAAAAAAAAAA==

>  <PUBCHEM_IUPAC_OPENEYE_NAME>  (7) 
5-bromo-1-[1-(dimethylamino)-2-methylsulfanyl-ethyl]-2H-pyrido[3,4-b]indol-6-ol

>  <PUBCHEM_IUPAC_CAS_NAME>  (7) 
5-bromo-1-[1-(dimethylamino)-2-(methylthio)ethyl]-2H-pyrido[3,4-b]indol-6-ol

>  <PUBCHEM_IUPAC_NAME_MARKUP>  (7) 
5-bromo-1-[1-(dimethylamino)-2-methylsulfanylethyl]-2<I>H</I>-pyrido[3,4-b]indol-6-ol

>  <PUBCHEM_IUPAC_NAME>  (7) 
5-bromo-1-[1-(dimethylamino)-2-methylsulfanylethyl]-2H-pyrido[3,4-b]indol-6-ol

>  <PUBCHEM_IUPAC_SYSTEMATIC_NAME>  (7) 
5-bromanyl-1-[1-(dimethylamino)-2-methylsulfanyl-ethyl]-2H-pyrido[3,4-b]indol-6-ol

>  <PUBCHEM_IUPAC_TRADITIONAL_NAME>  (7) 
5-bromo-1-[1-(dimethylamino)-2-(methylthio)ethyl]-2H-beta-carbolin-6-ol

>  <PUBCHEM_IUPAC_INCHI>  (7) 
InChI=1S/C16H18BrN3OS/c1-20(2)11(8-22-3)16-15-9(6-7-18-16)13-10(19-15)4-5-12(21)14(13)17/h4-7,11,18,21H,8H2,1-3H3

>  <PUBCHEM_IUPAC_INCHIKEY>  (7) 
CPYJZIMPTDCKAL-UHFFFAOYSA-N

>  <PUBCHEM_XLOGP3_AA>  (7) 
2.9

>  <PUBCHEM_EXACT_MASS>  (7) 
379.03540

>  <PUBCHEM_MOLECULAR_FORMULA>  (7) 
C16H18BrN3OS

>  <PUBCHEM_MOLECULAR_WEIGHT>  (7) 
380.3

>  <PUBCHEM_SMILES>  (7) 
CN(C)C(CSC)C1=C2C(=C3C(=N2)C=CC(=C3Br)O)C=CN1

>  <PUBCHEM_CONNECTIVITY_SMILES>  (7) 
CN(C)C(CSC)C1=C2C(=C3C(=N2)C=CC(=C3Br)O)C=CN1

>  <PUBCHEM_CACTVS_TPSA>  (7) 
77.5

>  <PUBCHEM_MONOISOTOPIC_WEIGHT>  (7) 
379.03540

>  <PUBCHEM_TOTAL_CHARGE>  (7) 
0

>  <PUBCHEM_HEAVY_ATOM_COUNT>  (7) 
22

>  <PUBCHEM_ATOM_DEF_STEREO_COUNT>  (7) 
0

>  <PUBCHEM_ATOM_UDEF_STEREO_COUNT>  (7) 
1

>  <PUBCHEM_BOND_DEF_STEREO_COUNT>  (7) 
0

>  <PUBCHEM_BOND_UDEF_STEREO_COUNT>  (7) 
0

>  <PUBCHEM_ISOTOPIC_ATOM_COUNT>  (7) 
0

>  <PUBCHEM_COMPONENT_COUNT>  (7) 
1

>  <PUBCHEM_CACTVS_TAUTO_COUNT>  (7) 
-1

>  <PUBCHEM_COORDINATE_TYPE>  (7) 
1
5
255

>  <PUBCHEM_BONDANNOTATIONS>  (7) 
10  12  8
10  14  8
12  13  8
12  18  8
13  19  8
14  15  8
18  20  8
19  21  8
20  21  8
5  15  8
5  8  8
6  13  8
6  9  8
7  11  3
8  9  8

$$$$
1503
     RDKit          2D

 22 24  0  0  0  0  0  0  0  0999 V2000
   10.5309    1.7115    0.0000 O   0  0  0  0  0  0  0  0  0  0  0  0
    8.5309   -1.7526    0.0000 O   0  0  0  0  0  0  0  0  0  0  0  0
    6.9473    0.7842    0.0000 N   0  0  0  0  0  0  0  0  0  0  0  0
    6.9473   -0.8252    0.0000 N   0  0  0  0  0  0  0  0  0  0  0  0
    2.5369    0.4795    0.0000 N   0  0  0  0  0  0  0  0  0  0  0  0
    3.4030    1.9795    0.0000 N   0  0  0  0  0  0  0  0  0  0  0  0
    6.0010    0.4795    0.0000 C   0  0  0  0  0  0  0  0  0  0  0  0
    7.5309   -0.0205    0.0000 C   0  0  0  0  0  0  0  0  0  0  0  0
    6.0010   -0.5205    0.0000 C   0  0  0  0  0  0  0  0  0  0  0  0
    8.5309   -0.0205    0.0000 C   0  0  0  0  0  0  0  0  0  0  0  0
    5.1350    0.9795    0.0000 C   0  0  0  0  0  0  0  0  0  0  0  0
    4.2690    0.4795    0.0000 C   0  0  0  0  0  0  0  0  0  0  0  0
    5.1350   -1.0205    0.0000 C   0  0  0  0  0  0  0  0  0  0  0  0
    9.0309   -0.8865    0.0000 C   0  0  0  0  0  0  0  0  0  0  0  0
    4.2690   -0.5205    0.0000 C   0  0  0  0  0  0  0  0  0  0  0  0
    9.0309    0.8455    0.0000 C   0  0  0  0  0  0  0  0  0  0  0  0
   10.0309    0.8455    0.0000 C   0  0  0  0  0  0  0  0  0  0  0  0
   10.0309   -0.8865    0.0000 C   0  0  0  0  0  0  0  0  0  0  0  0
   10.5309   -0.0205    0.0000 C   0  0  0  0  0  0  0  0  0  0  0  0
    3.4030    0.9795    0.0000 C   0  0  0  0  0  0  0  0  0  0  0  0
   11.5309    1.7115    0.0000 C   0  0  0  0  0  0  0  0  0  0  0  0
    2.8660    2.2895    0.0000 H   0  0  0  0  0  0  0  0  0  0  0  0
  1 17  1  0
  1 21  1  0
  2 14  1  0
  3  7  1  0
  3  8  1  0
  4  8  2  0
  4  9  1  0
  5 20  1  0
  6 20  2  0
  6 22  1  0
  7  9  2  0
  7 11  1  0
  8 10  1  0
  9 13  1  0
 10 14  2  0
 10 16  1  0
 11 12  2  0
 12 15  1  0
 12 20  1  0
 13 15  2  0
 14 18  1  0
 16 17  2  0
 17 19  1  0
 18 19  2  0
M  END
>  <PUBCHEM_COMPOUND_CID>  (8) 
1503

>  <PUBCHEM_COMPOUND_CANONICALIZED>  (8) 
1

>  <PUBCHEM_CACTVS_COMPLEXITY>  (8) 
392

>  <PUBCHEM_CACTVS_HBOND_ACCEPTOR>  (8) 
4

>  <PUBCHEM_CACTVS_HBOND_DONOR>  (8) 
4

>  <PUBCHEM_CACTVS_ROTATABLE_BOND>  (8) 
3

>  <PUBCHEM_CACTVS_SUBSKEYS>  (8) 
AAADccBzsAAAAAAAAAAAAAAAAAAAAWAAAAAwYAAAAAAAAFgB9AAAHgAQCAAADAyBnwIz1rbJlgCgAyZiZACCiC2hMqAJmSA2fJiMbqLGuZuUcChu0BPI+CfwwDAOCQABQAAIACASAAKAABAAQAAAAAAAAA==

>  <PUBCHEM_IUPAC_OPENEYE_NAME>  (8) 
2-(2-hydroxy-5-methoxy-phenyl)-3H-benzimidazole-5-carboxamidine

>  <PUBCHEM_IUPAC_CAS_NAME>  (8) 
2-(2-hydroxy-5-methoxyphenyl)-3H-benzimidazole-5-carboximidamide

>  <PUBCHEM_IUPAC_NAME_MARKUP>  (8) 
2-(2-hydroxy-5-methoxyphenyl)-3<I>H</I>-benzimidazole-5-carboximidamide

>  <PUBCHEM_IUPAC_NAME>  (8) 
2-(2-hydroxy-5-methoxyphenyl)-3H-benzimidazole-5-carboximidamide

>  <PUBCHEM_IUPAC_SYSTEMATIC_NAME>  (8) 
2-(5-methoxy-2-oxidanyl-phenyl)-3H-benzimidazole-5-carboximidamide

>  <PUBCHEM_IUPAC_TRADITIONAL_NAME>  (8) 
2-(2-hydroxy-5-methoxy-phenyl)-3H-benzimidazole-5-carboxamidine

>  <PUBCHEM_IUPAC_INCHI>  (8) 
InChI=1S/C15H14N4O2/c1-21-9-3-5-13(20)10(7-9)15-18-11-4-2-8(14(16)17)6-12(11)19-15/h2-7,20H,1H3,(H3,16,17)(H,18,19)

>  <PUBCHEM_IUPAC_INCHIKEY>  (8) 
ZFCKHJJALHETHG-UHFFFAOYSA-N

>  <PUBCHEM_XLOGP3_AA>  (8) 
1.7

>  <PUBCHEM_EXACT_MASS>  (8) 
282.11167570

>  <PUBCHEM_MOLECULAR_FORMULA>  (8) 
C15H14N4O2

>  <PUBCHEM_MOLECULAR_WEIGHT>  (8) 
282.30

>  <PUBCHEM_SMILES>  (8) 
COC1=CC(=C(C=C1)O)C2=NC3=C(N2)C=C(C=C3)C(=N)N

>  <PUBCHEM_CONNECTIVITY_SMILES>  (8) 
COC1=CC(=C(C=C1)O)C2=NC3=C(N2)C=C(C=C3)C(=N)N

>  <PUBCHEM_CACTVS_TPSA>  (8) 
108

>  <PUBCHEM_MONOISOTOPIC_WEIGHT>  (8) 
282.11167570

>  <PUBCHEM_TOTAL_CHARGE>  (8) 
0

>  <PUBCHEM_HEAVY_ATOM_COUNT>  (8) 
21

>  <PUBCHEM_ATOM_DEF_STEREO_COUNT>  (8) 
0

>  <PUBCHEM_ATOM_UDEF_STEREO_COUNT>  (8) 
0

>  <PUBCHEM_BOND_DEF_STEREO_COUNT>  (8) 
0

>  <PUBCHEM_BOND_UDEF_STEREO_COUNT>  (8) 
0

>  <PUBCHEM_ISOTOPIC_ATOM_COUNT>  (8) 
0

>  <PUBCHEM_COMPONENT_COUNT>  (8) 
1

>  <PUBCHEM_CACTVS_TAUTO_COUNT>  (8) 
-1

>  <PUBCHEM_COORDINATE_TYPE>  (8) 
1
5
255

>  <PUBCHEM_BONDANNOTATIONS>  (8) 
10  14  8
10  16  8
11  12  8
12  15  8
13  15  8
14  18  8
16  17  8
17  19  8
18  19  8
3  7  8
3  8  8
4  8  8
4  9  8
7  11  8
7  9  8
9  13  8

$$$$
1608
     RDKit          2D

 10 10  0  0  0  0  0  0  0  0999 V2000
    2.0000   -1.5600    0.0000 Cl  0  0  0  0  0  0  0  0  0  0  0  0
    3.7321   -2.5600    0.0000 Cl  0  0  0  0  0  0  0  0  0  0  0  0
    4.5981    1.9400    0.0000 N   0  0  0  0  0  0  0  0  0  0  0  0
    3.7321    0.4400    0.0000 C   0  0  0  0  0  0  0  0  0  0  0  0
    3.7321    1.4400    0.0000 C   0  0  0  0  0  0  0  0  0  0  0  0
    2.8660   -0.0600    0.0000 C   0  0  0  0  0  0  0  0  0  0  0  0
    4.5981   -0.0600    0.0000 C   0  0  0  0  0  0  0  0  0  0  0  0
    2.8660   -1.0600    0.0000 C   0  0  0  0  0  0  0  0  0  0  0  0
    4.5981   -1.0600    0.0000 C   0  0  0  0  0  0  0  0  0  0  0  0
    3.7321   -1.5600    0.0000 C   0  0  0  0  0  0  0  0  0  0  0  0
  1  8  1  0
  2 10  1  0
  3  5  1  0
  4  5  1  0
  4  6  2  0
  4  7  1  0
  6  8  1  0
  7  9  2  0
  8 10  2  0
  9 10  1  0
M  END
>  <PUBCHEM_COMPOUND_CID>  (9) 
1608

>  <PUBCHEM_COMPOUND_CANONICALIZED>  (9) 
1

>  <PUBCHEM_CACTVS_COMPLEXITY>  (9) 
108

>  <PUBCHEM_CACTVS_HBOND_ACCEPTOR>  (9) 
1

>  <PUBCHEM_CACTVS_HBOND_DONOR>  (9) 
1

>  <PUBCHEM_CACTVS_ROTATABLE_BOND>  (9) 
1

>  <PUBCHEM_CACTVS_SUBSKEYS>  (9) 
AAADcYBiAAAGAAAAAAAAAAAAAAAAAAAAAAAwAAAAAAAAAAABAAAAHAIQAAAADALBGCQwAIBAAACAAiBCAACCAAAgBQAIisAABogIICKBkxGAIABggAAIiAcQgAAOBAAAIAAAAAQIAABAAAAACAAAAAAAAA==

>  <PUBCHEM_IUPAC_OPENEYE_NAME>  (9) 
(3,4-dichlorophenyl)methanamine

>  <PUBCHEM_IUPAC_CAS_NAME>  (9) 
(3,4-dichlorophenyl)methanamine

>  <PUBCHEM_IUPAC_NAME_MARKUP>  (9) 
(3,4-dichlorophenyl)methanamine

>  <PUBCHEM_IUPAC_NAME>  (9) 
(3,4-dichlorophenyl)methanamine

>  <PUBCHEM_IUPAC_SYSTEMATIC_NAME>  (9) 
(3,4-dichlorophenyl)methanamine

>  <PUBCHEM_IUPAC_TRADITIONAL_NAME>  (9) 
(3,4-dichlorobenzyl)amine

>  <PUBCHEM_IUPAC_INCHI>  (9) 
InChI=1S/C7H7Cl2N/c8-6-2-1-5(4-10)3-7(6)9/h1-3H,4,10H2

>  <PUBCHEM_IUPAC_INCHIKEY>  (9) 
IXHNFOOSLAWRBQ-UHFFFAOYSA-N

>  <PUBCHEM_XLOGP3>  (9) 
2.5

>  <PUBCHEM_EXACT_MASS>  (9) 
174.9955546

>  <PUBCHEM_MOLECULAR_FORMULA>  (9) 
C7H7Cl2N

>  <PUBCHEM_MOLECULAR_WEIGHT>  (9) 
176.04

>  <PUBCHEM_SMILES>  (9) 
C1=CC(=C(C=C1CN)Cl)Cl

>  <PUBCHEM_CONNECTIVITY_SMILES>  (9) 
C1=CC(=C(C=C1CN)Cl)Cl

>  <PUBCHEM_CACTVS_TPSA>  (9) 
26

>  <PUBCHEM_MONOISOTOPIC_WEIGHT>  (9) 
174.9955546

>  <PUBCHEM_TOTAL_CHARGE>  (9) 
0

>  <PUBCHEM_HEAVY_ATOM_COUNT>  (9) 
10

>  <PUBCHEM_ATOM_DEF_STEREO_COUNT>  (9) 
0

>  <PUBCHEM_ATOM_UDEF_STEREO_COUNT>  (9) 
0

>  <PUBCHEM_BOND_DEF_STEREO_COUNT>  (9) 
0

>  <PUBCHEM_BOND_UDEF_STEREO_COUNT>  (9) 
0

>  <PUBCHEM_ISOTOPIC_ATOM_COUNT>  (9) 
0

>  <PUBCHEM_COMPONENT_COUNT>  (9) 
1

>  <PUBCHEM_CACTVS_TAUTO_COUNT>  (9) 
-1

>  <PUBCHEM_COORDINATE_TYPE>  (9) 
1
5
255

>  <PUBCHEM_BONDANNOTATIONS>  (9) 
4  6  8
4  7  8
6  8  8
7  9  8
8  10  8
9  10  8

$$$$
1611
     RDKit          2D

 22 24  0  0  1  0  0  0  0  0999 V2000
    6.1808   -1.2220    0.0000 S   0  0  0  0  0  0  0  0  0  0  0  0
    7.9930   -1.0267    0.0000 S   0  0  0  0  0  0  0  0  0  0  0  0
    9.5766   -0.2220    0.0000 S   0  0  0  0  0  0  0  0  0  0  0  0
    3.4782    0.2725    0.0000 S   0  0  0  0  0  0  0  0  0  0  0  0
    6.1808    1.7780    0.0000 O   0  0  0  0  0  0  0  0  0  0  0  0
    5.6808   -2.0880    0.0000 O   0  0  0  0  0  0  0  0  0  0  0  0
    6.6808   -2.0880    0.0000 O   0  0  0  0  0  0  0  0  0  0  0  0
    9.5766    0.7780    0.0000 O   0  0  0  0  0  0  0  0  0  0  0  0
    9.5766   -1.2220    0.0000 O   0  0  0  0  0  0  0  0  0  0  0  0
    5.3147   -0.7220    0.0000 N   0  0  0  0  0  0  0  0  0  0  0  0
   10.5766   -0.2220    0.0000 N   0  0  0  0  0  0  0  0  0  0  0  0
    6.1808    0.7780    0.0000 C   0  0  0  0  0  0  0  0  0  0  0  0
    5.3147    0.2780    0.0000 C   0  0  0  0  0  0  0  0  0  0  0  0
    7.0468    0.2780    0.0000 C   0  0  0  0  0  0  0  0  0  0  0  0
    7.0468   -0.7220    0.0000 C   0  0  0  0  0  0  0  0  0  0  0  0
    4.4487   -1.2220    0.0000 C   0  0  0  0  0  0  0  0  0  0  0  0
    7.9930    0.5827    0.0000 C   0  0  0  0  0  0  0  0  0  0  0  0
    8.5766   -0.2220    0.0000 C   0  0  0  0  0  0  0  0  0  0  0  0
    3.5827   -0.7220    0.0000 C   0  0  0  0  0  0  0  0  0  0  0  0
    2.6691   -1.1287    0.0000 C   0  0  0  0  0  0  0  0  0  0  0  0
    2.0000   -0.3856    0.0000 C   0  0  0  0  0  0  0  0  0  0  0  0
    2.5000    0.4804    0.0000 C   0  0  0  0  0  0  0  0  0  0  0  0
  1  6  2  0
  1  7  2  0
  1 10  1  0
  1 15  1  0
  2 15  1  0
  2 18  1  0
  3  8  2  0
  3  9  2  0
  3 11  1  0
  3 18  1  0
  4 19  1  0
  4 22  1  0
  5 12  1  0
 10 13  1  0
 10 16  1  0
 12 13  1  0
 12 14  1  0
 14 15  2  0
 14 17  1  0
 16 19  1  0
 17 18  2  0
 19 20  2  0
 20 21  1  0
 21 22  2  0
M  END
>  <PUBCHEM_COMPOUND_CID>  (10) 
1611

>  <PUBCHEM_COMPOUND_CANONICALIZED>  (10) 
1

>  <PUBCHEM_CACTVS_COMPLEXITY>  (10) 
626

>  <PUBCHEM_CACTVS_HBOND_ACCEPTOR>  (10) 
9

>  <PUBCHEM_CACTVS_HBOND_DONOR>  (10) 
2

>  <PUBCHEM_CACTVS_ROTATABLE_BOND>  (10) 
3

>  <PUBCHEM_CACTVS_SUBSKEYS>  (10) 
AAADccBzOABwAAAAAAAAAAAAAAAAASJAAAAsAAAAAAAAAFgB4AAAHgQQSAAADBTl2AawAYIAAgqEAiBCAHDDAZAgCBBIiBgIDIgKNiKgkRGEUAhkwAG4mAYQAAAKAAAAAAAAAAAAAAAAAAAAAAAAAAAAAA==

>  <PUBCHEM_IUPAC_OPENEYE_NAME>  (10) 
4-hydroxy-1,1-dioxo-2-(2-thienylmethyl)-3,4-dihydrothieno[3,2-e]thiazine-6-sulfonamide

>  <PUBCHEM_IUPAC_CAS_NAME>  (10) 
4-hydroxy-1,1-dioxo-2-(thiophen-2-ylmethyl)-3,4-dihydrothieno[3,2-e]thiazine-6-sulfonamide

>  <PUBCHEM_IUPAC_NAME_MARKUP>  (10) 
4-hydroxy-1,1-dioxo-2-(thiophen-2-ylmethyl)-3,4-dihydrothieno[3,2-e]thiazine-6-sulfonamide

>  <PUBCHEM_IUPAC_NAME>  (10) 
4-hydroxy-1,1-dioxo-2-(thiophen-2-ylmethyl)-3,4-dihydrothieno[3,2-e]thiazine-6-sulfonamide

>  <PUBCHEM_IUPAC_SYSTEMATIC_NAME>  (10) 
4-oxidanyl-1,1-bis(oxidanylidene)-2-(thiophen-2-ylmethyl)-3,4-dihydrothieno[3,2-e][1,2]thiazine-6-sulfonamide

>  <PUBCHEM_IUPAC_TRADITIONAL_NAME>  (10) 
4-hydroxy-1,1-diketo-2-(2-thenyl)-3,4-dihydrothieno[3,2-e]thiazine-6-sulfonamide

>  <PUBCHEM_IUPAC_INCHI>  (10) 
InChI=1S/C11H12N2O5S4/c12-21(15,16)10-4-8-9(14)6-13(5-7-2-1-3-19-7)22(17,18)11(8)20-10/h1-4,9,14H,5-6H2,(H2,12,15,16)

>  <PUBCHEM_IUPAC_INCHIKEY>  (10) 
HHPUQNGRNUOYCD-UHFFFAOYSA-N

>  <PUBCHEM_XLOGP3_AA>  (10) 
0.1

>  <PUBCHEM_EXACT_MASS>  (10) 
379.96290618

>  <PUBCHEM_MOLECULAR_FORMULA>  (10) 
C11H12N2O5S4

>  <PUBCHEM_MOLECULAR_WEIGHT>  (10) 
380.5

>  <PUBCHEM_SMILES>  (10) 
C1C(C2=C(SC(=C2)S(=O)(=O)N)S(=O)(=O)N1CC3=CC=CS3)O

>  <PUBCHEM_CONNECTIVITY_SMILES>  (10) 
C1C(C2=C(SC(=C2)S(=O)(=O)N)S(=O)(=O)N1CC3=CC=CS3)O

>  <PUBCHEM_CACTVS_TPSA>  (10) 
191

>  <PUBCHEM_MONOISOTOPIC_WEIGHT>  (10) 
379.96290618

>  <PUBCHEM_TOTAL_CHARGE>  (10) 
0

>  <PUBCHEM_HEAVY_ATOM_COUNT>  (10) 
22

>  <PUBCHEM_ATOM_DEF_STEREO_COUNT>  (10) 
0

>  <PUBCHEM_ATOM_UDEF_STEREO_COUNT>  (10) 
1

>  <PUBCHEM_BOND_DEF_STEREO_COUNT>  (10) 
0

>  <PUBCHEM_BOND_UDEF_STEREO_COUNT>  (10) 
0

>  <PUBCHEM_ISOTOPIC_ATOM_COUNT>  (10) 
0

>  <PUBCHEM_COMPONENT_COUNT>  (10) 
1

>  <PUBCHEM_CACTVS_TAUTO_COUNT>  (10) 
-1

>  <PUBCHEM_COORDINATE_TYPE>  (10) 
1
5
255

>  <PUBCHEM_BONDANNOTATIONS>  (10) 
14  15  8
14  17  8
17  18  8
19  20  8
2  15  8
2  18  8
20  21  8
21  22  8
4  19  8
4  22  8
12  5  3

$$$$
1715
     RDKit          2D

 30 33  0  0  0  0  0  0  0  0999 V2000
   11.4019   -2.6687    0.0000 S   0  0  0  0  0  0  0  0  0  0  0  0
   10.1688    1.0684    0.0000 O   0  0  0  0  0  0  0  0  0  0  0  0
   14.8478   -0.5211    0.0000 O   0  0  0  0  0  0  0  0  0  0  0  0
    7.2023    0.6213    0.0000 N   0  0  0  0  0  0  0  0  0  0  0  0
   10.4269   -0.6443    0.0000 N   0  0  0  0  0  0  0  0  0  0  0  0
    5.2246    0.3232    0.0000 C   0  0  0  0  0  0  0  0  0  0  0  0
    5.5900    1.2541    0.0000 C   0  0  0  0  0  0  0  0  0  0  0  0
    5.8481   -0.4586    0.0000 C   0  0  0  0  0  0  0  0  0  0  0  0
    6.5788    1.4032    0.0000 C   0  0  0  0  0  0  0  0  0  0  0  0
    6.8370   -0.3096    0.0000 C   0  0  0  0  0  0  0  0  0  0  0  0
    4.2358    0.1742    0.0000 C   0  0  0  0  0  0  0  0  0  0  0  0
    8.1911    0.7704    0.0000 C   0  0  0  0  0  0  0  0  0  0  0  0
    8.8146   -0.0115    0.0000 C   0  0  0  0  0  0  0  0  0  0  0  0
    3.6123    0.9560    0.0000 C   0  0  0  0  0  0  0  0  0  0  0  0
    9.8035    0.1376    0.0000 C   0  0  0  0  0  0  0  0  0  0  0  0
    3.9777    1.8869    0.0000 C   0  0  0  0  0  0  0  0  0  0  0  0
    2.6235    0.8070    0.0000 C   0  0  0  0  0  0  0  0  0  0  0  0
   11.4019   -0.4217    0.0000 C   0  0  0  0  0  0  0  0  0  0  0  0
    9.9931   -1.5452    0.0000 C   0  0  0  0  0  0  0  0  0  0  0  0
   12.1837   -1.0452    0.0000 C   0  0  0  0  0  0  0  0  0  0  0  0
   10.4269   -2.4462    0.0000 C   0  0  0  0  0  0  0  0  0  0  0  0
    3.3542    2.6687    0.0000 C   0  0  0  0  0  0  0  0  0  0  0  0
    2.0000    1.5888    0.0000 C   0  0  0  0  0  0  0  0  0  0  0  0
   12.1837   -2.0452    0.0000 C   0  0  0  0  0  0  0  0  0  0  0  0
    2.3653    2.5197    0.0000 C   0  0  0  0  0  0  0  0  0  0  0  0
   13.0776   -0.5106    0.0000 C   0  0  0  0  0  0  0  0  0  0  0  0
   13.0776   -2.5799    0.0000 C   0  0  0  0  0  0  0  0  0  0  0  0
   13.9837   -1.0244    0.0000 C   0  0  0  0  0  0  0  0  0  0  0  0
   13.9837   -2.0661    0.0000 C   0  0  0  0  0  0  0  0  0  0  0  0
   15.7158   -1.0177    0.0000 C   0  0  0  0  0  0  0  0  0  0  0  0
  1 21  1  0
  1 24  1  0
  2 15  2  0
  3 28  1  0
  3 30  1  0
  4  9  1  0
  4 10  1  0
  4 12  1  0
  5 15  1  0
  5 18  1  0
  5 19  1  0
  6  7  1  0
  6  8  1  0
  6 11  1  0
  7  9  1  0
  8 10  1  0
 11 14  1  0
 12 13  1  0
 13 15  1  0
 14 16  2  0
 14 17  1  0
 16 22  1  0
 17 23  2  0
 18 20  1  0
 19 21  1  0
 20 24  2  0
 20 26  1  0
 22 25  2  0
 23 25  1  0
 24 27  1  0
 26 28  2  0
 27 29  2  0
 28 29  1  0
M  END
>  <PUBCHEM_COMPOUND_CID>  (11) 
1715

>  <PUBCHEM_COMPOUND_CANONICALIZED>  (11) 
1

>  <PUBCHEM_CACTVS_COMPLEXITY>  (11) 
531

>  <PUBCHEM_CACTVS_HBOND_ACCEPTOR>  (11) 
4

>  <PUBCHEM_CACTVS_HBOND_DONOR>  (11) 
0

>  <PUBCHEM_CACTVS_ROTATABLE_BOND>  (11) 
6

>  <PUBCHEM_CACTVS_SUBSKEYS>  (11) 
AAADcfB7MABAAAAAAAAAAAAAAAAAAAAAAAA8YIAABYAAAAABQAAAHgQAAAAADQTF2AayB4MABAiIAiFSEACCCAAgKBAIiBkODIgMJiqk8RuEMChkxhGoqAewwNAOAIABAAAEAAABAAIAAAgAAAAAAAAAAA==

>  <PUBCHEM_IUPAC_OPENEYE_NAME>  (11) 
3-(4-benzyl-1-piperidyl)-1-(7-methoxy-3,5-dihydro-2H-1,4-benzothiazepin-4-yl)propan-1-one

>  <PUBCHEM_IUPAC_CAS_NAME>  (11) 
1-(7-methoxy-3,5-dihydro-2H-1,4-benzothiazepin-4-yl)-3-[4-(phenylmethyl)-1-piperidinyl]-1-propanone

>  <PUBCHEM_IUPAC_NAME_MARKUP>  (11) 
3-(4-benzylpiperidin-1-yl)-1-(7-methoxy-3,5-dihydro-2<I>H</I>-1,4-benzothiazepin-4-yl)propan-1-one

>  <PUBCHEM_IUPAC_NAME>  (11) 
3-(4-benzylpiperidin-1-yl)-1-(7-methoxy-3,5-dihydro-2H-1,4-benzothiazepin-4-yl)propan-1-one

>  <PUBCHEM_IUPAC_SYSTEMATIC_NAME>  (11) 
1-(7-methoxy-3,5-dihydro-2H-1,4-benzothiazepin-4-yl)-3-[4-(phenylmethyl)piperidin-1-yl]propan-1-one

>  <PUBCHEM_IUPAC_TRADITIONAL_NAME>  (11) 
3-(4-benzylpiperidino)-1-(7-methoxy-3,5-dihydro-2H-1,4-benzothiazepin-4-yl)propan-1-one

>  <PUBCHEM_IUPAC_INCHI>  (11) 
InChI=1S/C25H32N2O2S/c1-29-23-7-8-24-22(18-23)19-27(15-16-30-24)25(28)11-14-26-12-9-21(10-13-26)17-20-5-3-2-4-6-20/h2-8,18,21H,9-17,19H2,1H3

>  <PUBCHEM_IUPAC_INCHIKEY>  (11) 
KCWGETCFOVJEPI-UHFFFAOYSA-N

>  <PUBCHEM_XLOGP3_AA>  (11) 
4.1

>  <PUBCHEM_EXACT_MASS>  (11) 
424.21844944

>  <PUBCHEM_MOLECULAR_FORMULA>  (11) 
C25H32N2O2S

>  <PUBCHEM_MOLECULAR_WEIGHT>  (11) 
424.6

>  <PUBCHEM_SMILES>  (11) 
COC1=CC2=C(C=C1)SCCN(C2)C(=O)CCN3CCC(CC3)CC4=CC=CC=C4

>  <PUBCHEM_CONNECTIVITY_SMILES>  (11) 
COC1=CC2=C(C=C1)SCCN(C2)C(=O)CCN3CCC(CC3)CC4=CC=CC=C4

>  <PUBCHEM_CACTVS_TPSA>  (11) 
58.1

>  <PUBCHEM_MONOISOTOPIC_WEIGHT>  (11) 
424.21844944

>  <PUBCHEM_TOTAL_CHARGE>  (11) 
0

>  <PUBCHEM_HEAVY_ATOM_COUNT>  (11) 
30

>  <PUBCHEM_ATOM_DEF_STEREO_COUNT>  (11) 
0

>  <PUBCHEM_ATOM_UDEF_STEREO_COUNT>  (11) 
0

>  <PUBCHEM_BOND_DEF_STEREO_COUNT>  (11) 
0

>  <PUBCHEM_BOND_UDEF_STEREO_COUNT>  (11) 
0

>  <PUBCHEM_ISOTOPIC_ATOM_COUNT>  (11) 
0

>  <PUBCHEM_COMPONENT_COUNT>  (11) 
1

>  <PUBCHEM_CACTVS_TAUTO_COUNT>  (11) 
-1

>  <PUBCHEM_COORDINATE_TYPE>  (11) 
1
5
255

>  <PUBCHEM_BONDANNOTATIONS>  (11) 
14  16  8
14  17  8
16  22  8
17  23  8
20  24  8
20  26  8
22  25  8
23  25  8
24  27  8
26  28  8
27  29  8
28  29  8

$$$$
1819
     RDKit          2D

 18 19  0  0  0  0  0  0  0  0999 V2000
    8.4333    2.1922    0.0000 P   0  0  0  0  0  0  0  0  0  0  0  0
    2.0000   -0.8765    0.0000 F   0  0  0  0  0  0  0  0  0  0  0  0
    8.1226    1.2417    0.0000 O   0  0  0  0  0  0  0  0  0  0  0  0
    8.7440    3.1427    0.0000 O   0  0  0  0  0  0  0  0  0  0  0  0
    9.3838    1.8815    0.0000 O   0  0  0  0  0  0  0  0  0  0  0  0
    7.4828    2.5029    0.0000 O   0  0  0  0  0  0  0  0  0  0  0  0
    5.5443   -2.6813    0.0000 N   0  0  0  0  0  0  0  0  0  0  0  0
    5.8550   -0.1213    0.0000 C   0  0  0  0  0  0  0  0  0  0  0  0
    5.5443   -1.0718    0.0000 C   0  0  0  0  0  0  0  0  0  0  0  0
    4.5981   -1.3765    0.0000 C   0  0  0  0  0  0  0  0  0  0  0  0
    6.8335    0.0849    0.0000 C   0  0  0  0  0  0  0  0  0  0  0  0
    4.5981   -2.3765    0.0000 C   0  0  0  0  0  0  0  0  0  0  0  0
    6.1279   -1.8765    0.0000 C   0  0  0  0  0  0  0  0  0  0  0  0
    7.1441    1.0355    0.0000 C   0  0  0  0  0  0  0  0  0  0  0  0
    3.7321   -0.8765    0.0000 C   0  0  0  0  0  0  0  0  0  0  0  0
    3.7321   -2.8765    0.0000 C   0  0  0  0  0  0  0  0  0  0  0  0
    2.8660   -1.3765    0.0000 C   0  0  0  0  0  0  0  0  0  0  0  0
    2.8660   -2.3765    0.0000 C   0  0  0  0  0  0  0  0  0  0  0  0
  1  3  1  0
  1  4  1  0
  1  5  1  0
  1  6  2  0
  2 17  1  0
  3 14  1  0
  7 12  1  0
  7 13  1  0
  8  9  1  0
  8 11  1  0
  9 10  1  0
  9 13  2  0
 10 12  2  0
 10 15  1  0
 11 14  1  0
 12 16  1  0
 15 17  2  0
 16 18  2  0
 17 18  1  0
M  END
>  <PUBCHEM_COMPOUND_CID>  (12) 
1819

>  <PUBCHEM_COMPOUND_CANONICALIZED>  (12) 
1

>  <PUBCHEM_CACTVS_COMPLEXITY>  (12) 
324

>  <PUBCHEM_CACTVS_HBOND_ACCEPTOR>  (12) 
5

>  <PUBCHEM_CACTVS_HBOND_DONOR>  (12) 
3

>  <PUBCHEM_CACTVS_ROTATABLE_BOND>  (12) 
5

>  <PUBCHEM_CACTVS_SUBSKEYS>  (12) 
AAADccByOQIAAAAAAAAAAAAAAAAAAWAAAAAwAAAAAAAAAFgB8AAAHwAQCCAADAjhng48wPLJkRCgQzRnRICCgCAxAiAI2aA4ZJgIIOLAkZGEIAhkkADIyAeQ0PIOgAAAAAACAAAAAAAAAAQAAAAAAAAAAA==

>  <PUBCHEM_IUPAC_OPENEYE_NAME>  (12) 
3-(5-fluoro-1H-indol-3-yl)propyl dihydrogen phosphate

>  <PUBCHEM_IUPAC_CAS_NAME>  (12) 
3-(5-fluoro-1H-indol-3-yl)propyl dihydrogen phosphate

>  <PUBCHEM_IUPAC_NAME_MARKUP>  (12) 
3-(5-fluoro-1<I>H</I>-indol-3-yl)propyl dihydrogen phosphate

>  <PUBCHEM_IUPAC_NAME>  (12) 
3-(5-fluoro-1H-indol-3-yl)propyl dihydrogen phosphate

>  <PUBCHEM_IUPAC_SYSTEMATIC_NAME>  (12) 
3-(5-fluoranyl-1H-indol-3-yl)propyl dihydrogen phosphate

>  <PUBCHEM_IUPAC_TRADITIONAL_NAME>  (12) 
3-(5-fluoro-1H-indol-3-yl)propyl dihydrogen phosphate

>  <PUBCHEM_IUPAC_INCHI>  (12) 
InChI=1S/C11H13FNO4P/c12-9-3-4-11-10(6-9)8(7-13-11)2-1-5-17-18(14,15)16/h3-4,6-7,13H,1-2,5H2,(H2,14,15,16)

>  <PUBCHEM_IUPAC_INCHIKEY>  (12) 
YVYGGBFCYXRNKM-UHFFFAOYSA-N

>  <PUBCHEM_XLOGP3>  (12) 
1.5

>  <PUBCHEM_EXACT_MASS>  (12) 
273.05662306

>  <PUBCHEM_MOLECULAR_FORMULA>  (12) 
C11H13FNO4P

>  <PUBCHEM_MOLECULAR_WEIGHT>  (12) 
273.20

>  <PUBCHEM_SMILES>  (12) 
C1=CC2=C(C=C1F)C(=CN2)CCCOP(=O)(O)O

>  <PUBCHEM_CONNECTIVITY_SMILES>  (12) 
C1=CC2=C(C=C1F)C(=CN2)CCCOP(=O)(O)O

>  <PUBCHEM_CACTVS_TPSA>  (12) 
82.6

>  <PUBCHEM_MONOISOTOPIC_WEIGHT>  (12) 
273.05662306

>  <PUBCHEM_TOTAL_CHARGE>  (12) 
0

>  <PUBCHEM_HEAVY_ATOM_COUNT>  (12) 
18

>  <PUBCHEM_ATOM_DEF_STEREO_COUNT>  (12) 
0

>  <PUBCHEM_ATOM_UDEF_STEREO_COUNT>  (12) 
0

>  <PUBCHEM_BOND_DEF_STEREO_COUNT>  (12) 
0

>  <PUBCHEM_BOND_UDEF_STEREO_COUNT>  (12) 
0

>  <PUBCHEM_ISOTOPIC_ATOM_COUNT>  (12) 
0

>  <PUBCHEM_COMPONENT_COUNT>  (12) 
1

>  <PUBCHEM_CACTVS_TAUTO_COUNT>  (12) 
-1

>  <PUBCHEM_COORDINATE_TYPE>  (12) 
1
5
255

>  <PUBCHEM_BONDANNOTATIONS>  (12) 
10  12  8
10  15  8
12  16  8
15  17  8
16  18  8
17  18  8
7  12  8
7  13  8
9  10  8
9  13  8

$$$$
1918
     RDKit          2D

 55 60  0  0  1  0  0  0  0  0999 V2000
    8.0197    1.4757    0.0000 P   0  0  0  0  0  0  0  0  0  0  0  0
    8.8857   -0.0243    0.0000 P   0  0  0  0  0  0  0  0  0  0  0  0
    6.1831    4.4703    0.0000 O   0  0  0  0  0  0  0  0  0  0  0  0
    3.7104    3.7076    0.0000 O   0  0  0  0  0  0  0  0  0  0  0  0
    5.1662    2.0909    0.0000 O   0  0  0  0  0  0  0  0  0  0  0  0
    7.1536    1.9758    0.0000 O   0  0  0  0  0  0  0  0  0  0  0  0
    8.8857    0.9757    0.0000 O   0  0  0  0  0  0  0  0  0  0  0  0
    9.7517   -4.5242    0.0000 O   0  0  0  0  0  0  0  0  0  0  0  0
   11.4838   -2.5242    0.0000 O   0  0  0  0  0  0  0  0  0  0  0  0
    8.8857   -1.0243    0.0000 O   0  0  0  0  0  0  0  0  0  0  0  0
    8.5197    2.3418    0.0000 O   0  0  0  0  0  0  0  0  0  0  0  0
    8.8857   -3.0242    0.0000 O   0  0  0  0  0  0  0  0  0  0  0  0
    7.5197    0.6097    0.0000 O   0  0  0  0  0  0  0  0  0  0  0  0
    7.8857   -0.0243    0.0000 O   0  0  0  0  0  0  0  0  0  0  0  0
    9.8857   -0.0243    0.0000 O   0  0  0  0  0  0  0  0  0  0  0  0
   13.2322   -8.5588    0.0000 O   0  0  0  0  0  0  0  0  0  0  0  0
   15.0139   -5.5001    0.0000 O   0  0  0  0  0  0  0  0  0  0  0  0
    4.7982    5.5917    0.0000 N   0  0  0  0  0  0  0  0  0  0  0  0
    4.6328    7.1927    0.0000 N   0  0  0  0  0  0  0  0  0  0  0  0
    3.0156    5.2112    0.0000 N   0  0  0  0  0  0  0  0  0  0  0  0
   11.4838   -5.5242    0.0000 N   0  0  0  0  0  0  0  0  0  0  0  0
    2.0000    6.6142    0.0000 N   0  0  0  0  0  0  0  0  0  0  0  0
    2.7072    8.1953    0.0000 N   0  0  0  0  0  0  0  0  0  0  0  0
   11.4838   -7.5242    0.0000 N   0  0  0  0  0  0  0  0  0  0  0  0
    7.9536   -5.5001    0.0000 N   0  0  0  0  0  0  0  0  0  0  0  0
   13.2437   -5.4896    0.0000 N   0  0  0  0  0  0  0  0  0  0  0  0
   14.1498   -7.0451    0.0000 N   0  0  0  0  0  0  0  0  0  0  0  0
    4.7050    3.8122    0.0000 C   0  0  0  0  0  0  0  0  0  0  0  0
    5.3741    3.0690    0.0000 C   0  0  0  0  0  0  0  0  0  0  0  0
    5.2050    4.6782    0.0000 C   0  0  0  0  0  0  0  0  0  0  0  0
    6.2876    3.4758    0.0000 C   0  0  0  0  0  0  0  0  0  0  0  0
    7.1536    2.9758    0.0000 C   0  0  0  0  0  0  0  0  0  0  0  0
    3.8257    5.7976    0.0000 C   0  0  0  0  0  0  0  0  0  0  0  0
    5.2960    6.4522    0.0000 C   0  0  0  0  0  0  0  0  0  0  0  0
    3.7229    6.7923    0.0000 C   0  0  0  0  0  0  0  0  0  0  0  0
   10.6178   -4.0242    0.0000 C   0  0  0  0  0  0  0  0  0  0  0  0
   10.6178   -3.0242    0.0000 C   0  0  0  0  0  0  0  0  0  0  0  0
   11.4838   -4.5242    0.0000 C   0  0  0  0  0  0  0  0  0  0  0  0
    9.7517   -2.5242    0.0000 C   0  0  0  0  0  0  0  0  0  0  0  0
    2.8100    7.2006    0.0000 C   0  0  0  0  0  0  0  0  0  0  0  0
   10.6178   -6.0242    0.0000 C   0  0  0  0  0  0  0  0  0  0  0  0
    9.7517   -1.5243    0.0000 C   0  0  0  0  0  0  0  0  0  0  0  0
   12.3498   -6.0242    0.0000 C   0  0  0  0  0  0  0  0  0  0  0  0
    2.1028    5.6195    0.0000 C   0  0  0  0  0  0  0  0  0  0  0  0
   10.6178   -7.0242    0.0000 C   0  0  0  0  0  0  0  0  0  0  0  0
    9.7238   -5.4896    0.0000 C   0  0  0  0  0  0  0  0  0  0  0  0
   12.3498   -7.0242    0.0000 C   0  0  0  0  0  0  0  0  0  0  0  0
    8.8178   -6.0034    0.0000 C   0  0  0  0  0  0  0  0  0  0  0  0
    8.8178   -7.0451    0.0000 C   0  0  0  0  0  0  0  0  0  0  0  0
    9.7238   -7.5589    0.0000 C   0  0  0  0  0  0  0  0  0  0  0  0
   13.2437   -7.5589    0.0000 C   0  0  0  0  0  0  0  0  0  0  0  0
    7.9536   -7.5484    0.0000 C   0  0  0  0  0  0  0  0  0  0  0  0
   14.1498   -6.0034    0.0000 C   0  0  0  0  0  0  0  0  0  0  0  0
    7.0857   -5.9968    0.0000 C   0  0  0  0  0  0  0  0  0  0  0  0
    7.9575   -4.5001    0.0000 C   0  0  0  0  0  0  0  0  0  0  0  0
  1  6  1  0
  1  7  1  0
  1 11  1  0
  1 13  2  0
  2  7  1  0
  2 10  1  0
  2 14  1  0
  2 15  2  0
  3 30  1  0
  3 31  1  0
  4 28  1  0
  5 29  1  0
  6 32  1  0
  8 36  1  0
  9 37  1  0
 10 42  1  0
 12 39  1  0
 16 51  2  0
 17 53  2  0
 18 30  1  0
 18 33  1  0
 18 34  1  0
 19 34  2  0
 19 35  1  0
 20 33  1  0
 20 44  2  0
 21 38  1  0
 21 41  1  0
 21 43  1  0
 22 40  2  0
 22 44  1  0
 23 40  1  0
 24 45  1  0
 24 47  2  0
 25 48  1  0
 25 54  1  0
 25 55  1  0
 26 43  2  0
 26 53  1  0
 27 51  1  0
 27 53  1  0
 28 29  1  0
 28 30  1  0
 29 31  1  0
 31 32  1  0
 33 35  2  0
 35 40  1  0
 36 37  1  0
 36 38  1  0
 37 39  1  0
 39 42  1  0
 41 45  2  0
 41 46  1  0
 43 47  1  0
 45 50  1  0
 46 48  2  0
 47 51  1  0
 48 49  1  0
 49 50  2  0
 49 52  1  0
M  END
>  <PUBCHEM_COMPOUND_CID>  (13) 
1918

>  <PUBCHEM_COMPOUND_CANONICALIZED>  (13) 
1

>  <PUBCHEM_CACTVS_COMPLEXITY>  (13) 
1610

>  <PUBCHEM_CACTVS_HBOND_ACCEPTOR>  (13) 
21

>  <PUBCHEM_CACTVS_HBOND_DONOR>  (13) 
9

>  <PUBCHEM_CACTVS_ROTATABLE_BOND>  (13) 
14

>  <PUBCHEM_CACTVS_SUBSKEYS>  (13) 
AAADcfB7/AMAAAAAAAAAAAAAAAAAAWJAAAA8QIEAAAAAAFiB/AAAHgAQCCAADBzhnwY38L/MFxCoQydzdICCgC0xEqAB2CEodJiLeCrA2dGeZAhvhSLbyCfwsAIOCACAQAQCACAQAQCACAQAQAAAAAAAAA==

>  <PUBCHEM_IUPAC_OPENEYE_NAME>  (13) 
[[5-(6-aminopurin-9-yl)-3,4-dihydroxy-tetrahydrofuran-2-yl]methoxy-hydroxy-phosphoryl] [5-[8-(dimethylamino)-7-methyl-2,4-dioxo-benzo[g]pteridin-10-yl]-2,3,4-trihydroxy-pentyl] hydrogen phosphate

>  <PUBCHEM_IUPAC_CAS_NAME>  (13) 
[[5-(6-aminopurin-9-yl)-3,4-dihydroxy-2-oxolanyl]methoxy-hydroxyphosphoryl] [5-[8-(dimethylamino)-7-methyl-2,4-dioxo-10-benzo[g]pteridinyl]-2,3,4-trihydroxypentyl] hydrogen phosphate

>  <PUBCHEM_IUPAC_NAME_MARKUP>  (13) 
[[5-(6-aminopurin-9-yl)-3,4-dihydroxyoxolan-2-yl]methoxy-hydroxyphosphoryl] [5-[8-(dimethylamino)-7-methyl-2,4-dioxobenzo[g]pteridin-10-yl]-2,3,4-trihydroxypentyl] hydrogen phosphate

>  <PUBCHEM_IUPAC_NAME>  (13) 
[[5-(6-aminopurin-9-yl)-3,4-dihydroxyoxolan-2-yl]methoxy-hydroxyphosphoryl] [5-[8-(dimethylamino)-7-methyl-2,4-dioxobenzo[g]pteridin-10-yl]-2,3,4-trihydroxypentyl] hydrogen phosphate

>  <PUBCHEM_IUPAC_SYSTEMATIC_NAME>  (13) 
[[5-(6-aminopurin-9-yl)-3,4-bis(oxidanyl)oxolan-2-yl]methoxy-oxidanyl-phosphoryl] [5-[8-(dimethylamino)-7-methyl-2,4-bis(oxidanylidene)benzo[g]pteridin-10-yl]-2,3,4-tris(oxidanyl)pentyl] hydrogen phosphate

>  <PUBCHEM_IUPAC_TRADITIONAL_NAME>  (13) 
[(5-adenin-9-yl-3,4-dihydroxy-tetrahydrofuran-2-yl)methoxy-hydroxy-phosphoryl] [5-[8-(dimethylamino)-2,4-diketo-7-methyl-benzo[g]pteridin-10-yl]-2,3,4-trihydroxy-pentyl] hydrogen phosphate

>  <PUBCHEM_IUPAC_INCHI>  (13) 
InChI=1S/C28H36N10O15P2/c1-11-4-12-14(5-13(11)36(2)3)37(25-19(33-12)26(44)35-28(45)34-25)6-15(39)20(41)16(40)7-50-54(46,47)53-55(48,49)51-8-17-21(42)22(43)27(52-17)38-10-32-18-23(29)30-9-31-24(18)38/h4-5,9-10,15-17,20-22,27,39-43H,6-8H2,1-3H3,(H,46,47)(H,48,49)(H2,29,30,31)(H,35,44,45)

>  <PUBCHEM_IUPAC_INCHIKEY>  (13) 
UXOZEHHQWXVTPI-UHFFFAOYSA-N

>  <PUBCHEM_XLOGP3_AA>  (13) 
-5.2

>  <PUBCHEM_EXACT_MASS>  (13) 
814.18368448

>  <PUBCHEM_MOLECULAR_FORMULA>  (13) 
C28H36N10O15P2

>  <PUBCHEM_MOLECULAR_WEIGHT>  (13) 
814.6

>  <PUBCHEM_SMILES>  (13) 
CC1=CC2=C(C=C1N(C)C)N(C3=NC(=O)NC(=O)C3=N2)CC(C(C(COP(=O)(O)OP(=O)(O)OCC4C(C(C(O4)N5C=NC6=C(N=CN=C65)N)O)O)O)O)O

>  <PUBCHEM_CONNECTIVITY_SMILES>  (13) 
CC1=CC2=C(C=C1N(C)C)N(C3=NC(=O)NC(=O)C3=N2)CC(C(C(COP(=O)(O)OP(=O)(O)OCC4C(C(C(O4)N5C=NC6=C(N=CN=C65)N)O)O)O)O)O

>  <PUBCHEM_CACTVS_TPSA>  (13) 
360

>  <PUBCHEM_MONOISOTOPIC_WEIGHT>  (13) 
814.18368448

>  <PUBCHEM_TOTAL_CHARGE>  (13) 
0

>  <PUBCHEM_HEAVY_ATOM_COUNT>  (13) 
55

>  <PUBCHEM_ATOM_DEF_STEREO_COUNT>  (13) 
0

>  <PUBCHEM_ATOM_UDEF_STEREO_COUNT>  (13) 
7

>  <PUBCHEM_BOND_DEF_STEREO_COUNT>  (13) 
0

>  <PUBCHEM_BOND_UDEF_STEREO_COUNT>  (13) 
0

>  <PUBCHEM_ISOTOPIC_ATOM_COUNT>  (13) 
0

>  <PUBCHEM_COMPONENT_COUNT>  (13) 
1

>  <PUBCHEM_CACTVS_TAUTO_COUNT>  (13) 
-1

>  <PUBCHEM_COORDINATE_TYPE>  (13) 
1
5
255

>  <PUBCHEM_BONDANNOTATIONS>  (13) 
39  12  3
30  18  3
18  33  8
18  34  8
19  34  8
19  35  8
20  33  8
20  44  8
21  41  8
21  43  8
22  40  8
22  44  8
24  45  8
24  47  8
26  43  8
26  53  8
27  51  8
27  53  8
31  32  3
33  35  8
35  40  8
28  4  3
41  45  8
41  46  8
45  50  8
46  48  8
47  51  8
48  49  8
49  50  8
29  5  3
36  8  3
37  9  3

$$$$
2016
     RDKit          2D

 17 19  0  0  0  0  0  0  0  0999 V2000
    6.0683    0.5173    0.0000 N   0  0  0  0  0  0  0  0  0  0  0  0
    9.5984    0.5415    0.0000 N   0  0  0  0  0  0  0  0  0  0  0  0
    2.5381    0.5415    0.0000 N   0  0  0  0  0  0  0  0  0  0  0  0
    6.9343    0.0173    0.0000 C   0  0  0  0  0  0  0  0  0  0  0  0
    5.2022    0.0173    0.0000 C   0  0  0  0  0  0  0  0  0  0  0  0
    6.9343   -0.9827    0.0000 C   0  0  0  0  0  0  0  0  0  0  0  0
    5.2022   -0.9827    0.0000 C   0  0  0  0  0  0  0  0  0  0  0  0
    6.0683   -1.4827    0.0000 C   0  0  0  0  0  0  0  0  0  0  0  0
    7.8282    0.5520    0.0000 C   0  0  0  0  0  0  0  0  0  0  0  0
    4.3083    0.5520    0.0000 C   0  0  0  0  0  0  0  0  0  0  0  0
    6.0683    1.5173    0.0000 C   0  0  0  0  0  0  0  0  0  0  0  0
    7.8282   -1.5173    0.0000 C   0  0  0  0  0  0  0  0  0  0  0  0
    4.3083   -1.5173    0.0000 C   0  0  0  0  0  0  0  0  0  0  0  0
    8.7343    0.0381    0.0000 C   0  0  0  0  0  0  0  0  0  0  0  0
    3.4022    0.0381    0.0000 C   0  0  0  0  0  0  0  0  0  0  0  0
    8.7343   -1.0035    0.0000 C   0  0  0  0  0  0  0  0  0  0  0  0
    3.4022   -1.0035    0.0000 C   0  0  0  0  0  0  0  0  0  0  0  0
  1  4  2  0
  1  5  1  0
  1 11  1  0
  2 14  1  0
  3 15  1  0
  4  6  1  0
  4  9  1  0
  5  7  2  0
  5 10  1  0
  6  8  2  0
  6 12  1  0
  7  8  1  0
  7 13  1  0
  9 14  2  0
 10 15  2  0
 12 16  2  0
 13 17  2  0
 14 16  1  0
 15 17  1  0
M  CHG  1   1   1
M  END
>  <PUBCHEM_COMPOUND_CID>  (14) 
2016

>  <PUBCHEM_COMPOUND_CANONICALIZED>  (14) 
1

>  <PUBCHEM_CACTVS_COMPLEXITY>  (14) 
255

>  <PUBCHEM_CACTVS_HBOND_ACCEPTOR>  (14) 
2

>  <PUBCHEM_CACTVS_HBOND_DONOR>  (14) 
2

>  <PUBCHEM_CACTVS_ROTATABLE_BOND>  (14) 
0

>  <PUBCHEM_CACTVS_SUBSKEYS>  (14) 
AAADccBzAAAAAAAAAAAAAAAAAAAAAAAAAAA8YIAAAAAAAACx/AAAHAAQAAAADAiBHgQywPNMEACgAyRiRACCgCAhAiAI2CA4ZJgIIOLA0dGEJAhgkADIyAcQgMAOCAAAAAQCAAAQAAAACAQAAAAAAAAAAA==

>  <PUBCHEM_IUPAC_OPENEYE_NAME>  (14) 
10-methylacridin-10-ium-3,6-diamine

>  <PUBCHEM_IUPAC_CAS_NAME>  (14) 
10-methylacridin-10-ium-3,6-diamine

>  <PUBCHEM_IUPAC_NAME_MARKUP>  (14) 
10-methylacridin-10-ium-3,6-diamine

>  <PUBCHEM_IUPAC_NAME>  (14) 
10-methylacridin-10-ium-3,6-diamine

>  <PUBCHEM_IUPAC_SYSTEMATIC_NAME>  (14) 
10-methylacridin-10-ium-3,6-diamine

>  <PUBCHEM_IUPAC_TRADITIONAL_NAME>  (14) 
(6-amino-10-methyl-acridin-10-ium-3-yl)amine

>  <PUBCHEM_IUPAC_INCHI>  (14) 
InChI=1S/C14H13N3/c1-17-13-7-11(15)4-2-9(13)6-10-3-5-12(16)8-14(10)17/h2-8H,1H3,(H3,15,16)/p+1

>  <PUBCHEM_IUPAC_INCHIKEY>  (14) 
XSIOKTWDEOJMGG-UHFFFAOYSA-O

>  <PUBCHEM_XLOGP3_AA>  (14) 
2.3

>  <PUBCHEM_EXACT_MASS>  (14) 
224.118772459

>  <PUBCHEM_MOLECULAR_FORMULA>  (14) 
C14H14N3+

>  <PUBCHEM_MOLECULAR_WEIGHT>  (14) 
224.28

>  <PUBCHEM_SMILES>  (14) 
C[N+]1=C2C=C(C=CC2=CC3=C1C=C(C=C3)N)N

>  <PUBCHEM_CONNECTIVITY_SMILES>  (14) 
C[N+]1=C2C=C(C=CC2=CC3=C1C=C(C=C3)N)N

>  <PUBCHEM_CACTVS_TPSA>  (14) 
55.9

>  <PUBCHEM_MONOISOTOPIC_WEIGHT>  (14) 
224.118772459

>  <PUBCHEM_TOTAL_CHARGE>  (14) 
1

>  <PUBCHEM_HEAVY_ATOM_COUNT>  (14) 
17

>  <PUBCHEM_ATOM_DEF_STEREO_COUNT>  (14) 
0

>  <PUBCHEM_ATOM_UDEF_STEREO_COUNT>  (14) 
0

>  <PUBCHEM_BOND_DEF_STEREO_COUNT>  (14) 
0

>  <PUBCHEM_BOND_UDEF_STEREO_COUNT>  (14) 
0

>  <PUBCHEM_ISOTOPIC_ATOM_COUNT>  (14) 
0

>  <PUBCHEM_COMPONENT_COUNT>  (14) 
1

>  <PUBCHEM_CACTVS_TAUTO_COUNT>  (14) 
-1

>  <PUBCHEM_COORDINATE_TYPE>  (14) 
1
5
255

>  <PUBCHEM_BONDANNOTATIONS>  (14) 
1  4  8
1  5  8
10  15  8
12  16  8
13  17  8
14  16  8
15  17  8
4  6  8
4  9  8
5  10  8
5  7  8
6  12  8
6  8  8
7  13  8
7  8  8
9  14  8

$$$$
2020
     RDKit          2D

 27 27  0  0  1  0  0  0  0  0999 V2000
    8.5043    3.9285    0.0000 O   0  0  0  0  0  0  0  0  0  0  0  0
    6.8671    1.4806    0.0000 O   0  0  0  0  0  0  0  0  0  0  0  0
    3.4030    0.4806    0.0000 O   0  0  0  0  0  0  0  0  0  0  0  0
    4.2690   -3.0194    0.0000 O   0  0  0  0  0  0  0  0  0  0  0  0
    2.5369   -4.0194    0.0000 O   0  0  0  0  0  0  0  0  0  0  0  0
    6.0010    2.9806    0.0000 N   0  0  0  0  0  0  0  0  0  0  0  0
    5.1350    0.4806    0.0000 N   0  0  0  0  0  0  0  0  0  0  0  0
    2.5369   -3.0194    0.0000 N   0  0  0  0  0  0  0  0  0  0  0  0
    6.8100    3.5684    0.0000 C   0  0  0  0  0  0  0  0  0  0  0  0
    6.5010    4.5194    0.0000 C   0  0  0  0  0  0  0  0  0  0  0  0
    5.1920    3.5684    0.0000 C   0  0  0  0  0  0  0  0  0  0  0  0
    5.5010    4.5194    0.0000 C   0  0  0  0  0  0  0  0  0  0  0  0
    5.1350    1.4806    0.0000 C   0  0  0  0  0  0  0  0  0  0  0  0
    6.0010    1.9806    0.0000 C   0  0  0  0  0  0  0  0  0  0  0  0
    7.7611    3.2594    0.0000 C   0  0  0  0  0  0  0  0  0  0  0  0
    4.2690    1.9806    0.0000 C   0  0  0  0  0  0  0  0  0  0  0  0
    4.2690   -1.0194    0.0000 C   0  0  0  0  0  0  0  0  0  0  0  0
    4.2690   -0.0194    0.0000 C   0  0  0  0  0  0  0  0  0  0  0  0
    5.1350   -1.5194    0.0000 C   0  0  0  0  0  0  0  0  0  0  0  0
    3.4030    1.4806    0.0000 C   0  0  0  0  0  0  0  0  0  0  0  0
    4.2690    2.9806    0.0000 C   0  0  0  0  0  0  0  0  0  0  0  0
    5.1350   -2.5194    0.0000 C   0  0  0  0  0  0  0  0  0  0  0  0
    3.4030   -1.5194    0.0000 C   0  0  0  0  0  0  0  0  0  0  0  0
    6.0010   -3.0194    0.0000 C   0  0  0  0  0  0  0  0  0  0  0  0
    6.0010   -4.0194    0.0000 C   0  0  0  0  0  0  0  0  0  0  0  0
    3.4030   -2.5194    0.0000 C   0  0  0  0  0  0  0  0  0  0  0  0
    6.8671   -4.5194    0.0000 C   0  0  0  0  0  0  0  0  0  0  0  0
  1 15  1  0
  2 14  2  0
  3 18  2  0
  4 26  2  0
  5  8  1  0
  6  9  1  0
  6 11  1  0
  6 14  1  0
  7 13  1  0
  7 18  1  0
  8 26  1  0
  9 10  1  0
  9 15  1  0
 10 12  1  0
 11 12  1  0
 13 14  1  0
 13 16  1  0
 16 20  1  0
 16 21  1  0
 17 18  1  0
 17 19  1  0
 17 23  1  0
 19 22  1  0
 22 24  1  0
 23 26  1  0
 24 25  1  0
 25 27  1  0
M  END
>  <PUBCHEM_COMPOUND_CID>  (15) 
2020

>  <PUBCHEM_COMPOUND_CANONICALIZED>  (15) 
1

>  <PUBCHEM_CACTVS_COMPLEXITY>  (15) 
498

>  <PUBCHEM_CACTVS_HBOND_ACCEPTOR>  (15) 
5

>  <PUBCHEM_CACTVS_HBOND_DONOR>  (15) 
4

>  <PUBCHEM_CACTVS_ROTATABLE_BOND>  (15) 
11

>  <PUBCHEM_CACTVS_SUBSKEYS>  (15) 
AAADcfB7OAAAAAAAAAAAAAAAAAAAAWAAAAAAAAAAAAAAAAAAAAAAHgAUCAAADSjhgAYCAAPQAgAIAAEQEAAAAAAAAAAgAIGIAAACUBIAgCAUQAAEFgCQAAGdmMKOAAAAAAAAAAAAAAAAAAAAAAAAAAAAAA==

>  <PUBCHEM_IUPAC_OPENEYE_NAME>  (15) 
2-[2-(hydroxyamino)-2-oxo-ethyl]-N-[1-[2-(hydroxymethyl)pyrrolidine-1-carbonyl]-2-methyl-propyl]heptanamide

>  <PUBCHEM_IUPAC_CAS_NAME>  (15) 
N'-hydroxy-N-[1-[2-(hydroxymethyl)-1-pyrrolidinyl]-3-methyl-1-oxobutan-2-yl]-2-pentylbutanediamide

>  <PUBCHEM_IUPAC_NAME_MARKUP>  (15) 
<I>N</I>&apos;-hydroxy-<I>N</I>-[1-[2-(hydroxymethyl)pyrrolidin-1-yl]-3-methyl-1-oxobutan-2-yl]-2-pentylbutanediamide

>  <PUBCHEM_IUPAC_NAME>  (15) 
N'-hydroxy-N-[1-[2-(hydroxymethyl)pyrrolidin-1-yl]-3-methyl-1-oxobutan-2-yl]-2-pentylbutanediamide

>  <PUBCHEM_IUPAC_SYSTEMATIC_NAME>  (15) 
N-[1-[2-(hydroxymethyl)pyrrolidin-1-yl]-3-methyl-1-oxidanylidene-butan-2-yl]-N'-oxidanyl-2-pentyl-butanediamide

>  <PUBCHEM_IUPAC_TRADITIONAL_NAME>  (15) 
2-[2-(hydroxyamino)-2-keto-ethyl]-N-[2-methyl-1-(2-methylolpyrrolidine-1-carbonyl)propyl]enanthamide

>  <PUBCHEM_IUPAC_INCHI>  (15) 
InChI=1S/C19H35N3O5/c1-4-5-6-8-14(11-16(24)21-27)18(25)20-17(13(2)3)19(26)22-10-7-9-15(22)12-23/h13-15,17,23,27H,4-12H2,1-3H3,(H,20,25)(H,21,24)

>  <PUBCHEM_IUPAC_INCHIKEY>  (15) 
XJLATMLVMSFZBN-UHFFFAOYSA-N

>  <PUBCHEM_XLOGP3_AA>  (15) 
1.5

>  <PUBCHEM_EXACT_MASS>  (15) 
385.25767123

>  <PUBCHEM_MOLECULAR_FORMULA>  (15) 
C19H35N3O5

>  <PUBCHEM_MOLECULAR_WEIGHT>  (15) 
385.5

>  <PUBCHEM_SMILES>  (15) 
CCCCCC(CC(=O)NO)C(=O)NC(C(C)C)C(=O)N1CCCC1CO

>  <PUBCHEM_CONNECTIVITY_SMILES>  (15) 
CCCCCC(CC(=O)NO)C(=O)NC(C(C)C)C(=O)N1CCCC1CO

>  <PUBCHEM_CACTVS_TPSA>  (15) 
119

>  <PUBCHEM_MONOISOTOPIC_WEIGHT>  (15) 
385.25767123

>  <PUBCHEM_TOTAL_CHARGE>  (15) 
0

>  <PUBCHEM_HEAVY_ATOM_COUNT>  (15) 
27

>  <PUBCHEM_ATOM_DEF_STEREO_COUNT>  (15) 
0

>  <PUBCHEM_ATOM_UDEF_STEREO_COUNT>  (15) 
3

>  <PUBCHEM_BOND_DEF_STEREO_COUNT>  (15) 
0

>  <PUBCHEM_BOND_UDEF_STEREO_COUNT>  (15) 
0

>  <PUBCHEM_ISOTOPIC_ATOM_COUNT>  (15) 
0

>  <PUBCHEM_COMPONENT_COUNT>  (15) 
1

>  <PUBCHEM_CACTVS_TAUTO_COUNT>  (15) 
-1

>  <PUBCHEM_COORDINATE_TYPE>  (15) 
1
5
255

>  <PUBCHEM_BONDANNOTATIONS>  (15) 
13  16  3
17  19  3
9  15  3

$$$$
2124
     RDKit          2D

  4  3  0  0  0  0  0  0  0  0999 V2000
    2.8660    0.2500    0.0000 Al  0  0  0  0  0  3  0  0  0  0  0  0
    3.7321    0.7500    0.0000 F   0  0  0  0  0  0  0  0  0  0  0  0
    2.0000    0.7500    0.0000 F   0  0  0  0  0  0  0  0  0  0  0  0
    2.8660   -0.7500    0.0000 F   0  0  0  0  0  0  0  0  0  0  0  0
  1  2  1  0
  1  3  1  0
  1  4  1  0
M  END
>  <PUBCHEM_COMPOUND_CID>  (16) 
2124

>  <PUBCHEM_COMPOUND_CANONICALIZED>  (16) 
1

>  <PUBCHEM_CACTVS_COMPLEXITY>  (16) 
8

>  <PUBCHEM_CACTVS_HBOND_ACCEPTOR>  (16) 
3

>  <PUBCHEM_CACTVS_HBOND_DONOR>  (16) 
0

>  <PUBCHEM_CACTVS_ROTATABLE_BOND>  (16) 
0

>  <PUBCHEM_CACTVS_SUBSKEYS>  (16) 
AAADcQAAAYAAABAAAAAAAAAAAAAAAAAAAAAAAAAAAAAAAAAAAAAAAAAAAAAAAAAAAAAAAAAAAAAAAAAAAAAAAAAAAAAAAAAAAAAAAAAAAAAAAAAAAAAAAAAAAAAAAAAAAAAAAAAAAAAAAAAAAAAAAAAAAA==

>  <PUBCHEM_IUPAC_OPENEYE_NAME>  (16) 
trifluoroalumane

>  <PUBCHEM_IUPAC_CAS_NAME>  (16) 
trifluoroalumane

>  <PUBCHEM_IUPAC_NAME_MARKUP>  (16) 
trifluoroalumane

>  <PUBCHEM_IUPAC_NAME>  (16) 
trifluoroalumane

>  <PUBCHEM_IUPAC_SYSTEMATIC_NAME>  (16) 
tris(fluoranyl)alumane

>  <PUBCHEM_IUPAC_TRADITIONAL_NAME>  (16) 
trifluoroalumane

>  <PUBCHEM_IUPAC_INCHI>  (16) 
InChI=1S/Al.3FH/h;3*1H/q+3;;;/p-3

>  <PUBCHEM_IUPAC_INCHIKEY>  (16) 
KLZUFWVZNOTSEM-UHFFFAOYSA-K

>  <PUBCHEM_EXACT_MASS>  (16) 
83.9767479

>  <PUBCHEM_MOLECULAR_FORMULA>  (16) 
AlF3

>  <PUBCHEM_MOLECULAR_WEIGHT>  (16) 
83.976748

>  <PUBCHEM_SMILES>  (16) 
F[Al](F)F

>  <PUBCHEM_CONNECTIVITY_SMILES>  (16) 
F[Al](F)F

>  <PUBCHEM_CACTVS_TPSA>  (16) 
0

>  <PUBCHEM_MONOISOTOPIC_WEIGHT>  (16) 
83.9767479

>  <PUBCHEM_TOTAL_CHARGE>  (16) 
0

>  <PUBCHEM_HEAVY_ATOM_COUNT>  (16) 
4

>  <PUBCHEM_ATOM_DEF_STEREO_COUNT>  (16) 
0

>  <PUBCHEM_ATOM_UDEF_STEREO_COUNT>  (16) 
0

>  <PUBCHEM_BOND_DEF_STEREO_COUNT>  (16) 
0

>  <PUBCHEM_BOND_UDEF_STEREO_COUNT>  (16) 
0

>  <PUBCHEM_ISOTOPIC_ATOM_COUNT>  (16) 
0

>  <PUBCHEM_COMPONENT_COUNT>  (16) 
1

>  <PUBCHEM_CACTVS_TAUTO_COUNT>  (16) 
-1

>  <PUBCHEM_COORDINATE_TYPE>  (16) 
1
5
255

$$$$
2132
     RDKit          2D

 18 19  0  0  0  0  0  0  0  0999 V2000
   10.3312    0.7500    0.0000 Br  0  0  0  0  0  0  0  0  0  0  0  0
    8.5991   -2.2500    0.0000 Br  0  0  0  0  0  0  0  0  0  0  0  0
    2.5369    2.2500    0.0000 O   0  0  0  0  0  0  0  0  0  0  0  0
    6.0010    0.2500    0.0000 N   0  0  0  0  0  0  0  0  0  0  0  0
    8.5991    1.7500    0.0000 N   0  0  0  0  0  0  0  0  0  0  0  0
    5.1350    0.7500    0.0000 C   0  0  0  0  0  0  0  0  0  0  0  0
    4.2690    0.2500    0.0000 C   0  0  0  0  0  0  0  0  0  0  0  0
    5.1350    1.7500    0.0000 C   0  0  0  0  0  0  0  0  0  0  0  0
    3.4030    0.7500    0.0000 C   0  0  0  0  0  0  0  0  0  0  0  0
    4.2690    2.2500    0.0000 C   0  0  0  0  0  0  0  0  0  0  0  0
    3.4030    1.7500    0.0000 C   0  0  0  0  0  0  0  0  0  0  0  0
    6.8671    0.7500    0.0000 C   0  0  0  0  0  0  0  0  0  0  0  0
    7.7331    0.2500    0.0000 C   0  0  0  0  0  0  0  0  0  0  0  0
    8.5991    0.7500    0.0000 C   0  0  0  0  0  0  0  0  0  0  0  0
    7.7331   -0.7500    0.0000 C   0  0  0  0  0  0  0  0  0  0  0  0
    9.4651    0.2500    0.0000 C   0  0  0  0  0  0  0  0  0  0  0  0
    8.5991   -1.2500    0.0000 C   0  0  0  0  0  0  0  0  0  0  0  0
    9.4651   -0.7500    0.0000 C   0  0  0  0  0  0  0  0  0  0  0  0
  1 16  1  0
  2 17  1  0
  3 11  1  0
  4  6  1  0
  4 12  1  0
  5 14  1  0
  6  7  1  0
  6  8  1  0
  7  9  1  0
  8 10  1  0
  9 11  1  0
 10 11  1  0
 12 13  1  0
 13 14  2  0
 13 15  1  0
 14 16  1  0
 15 17  2  0
 16 18  2  0
 17 18  1  0
M  END
>  <PUBCHEM_COMPOUND_CID>  (17) 
2132

>  <PUBCHEM_COMPOUND_CANONICALIZED>  (17) 
1

>  <PUBCHEM_CACTVS_COMPLEXITY>  (17) 
259

>  <PUBCHEM_CACTVS_HBOND_ACCEPTOR>  (17) 
3

>  <PUBCHEM_CACTVS_HBOND_DONOR>  (17) 
3

>  <PUBCHEM_CACTVS_ROTATABLE_BOND>  (17) 
3

>  <PUBCHEM_CACTVS_SUBSKEYS>  (17) 
AAADceBzIAAAGAAAAAAAAAAAAAAAAAAAAAAwYAAAAAAAAAABAAAAHgBQCAABrDzhmAYwwILAAgCAAiRCQACCAAAgAAQAiIAIRKgIMCKA0ZGEYAhkkACIyhewwAAOAAAgEAAiAAgAgEAgAEQAEAAAAAAAAA==

>  <PUBCHEM_IUPAC_OPENEYE_NAME>  (17) 
4-[(2-amino-3,5-dibromo-phenyl)methylamino]cyclohexanol

>  <PUBCHEM_IUPAC_CAS_NAME>  (17) 
4-[(2-amino-3,5-dibromophenyl)methylamino]-1-cyclohexanol

>  <PUBCHEM_IUPAC_NAME_MARKUP>  (17) 
4-[(2-amino-3,5-dibromophenyl)methylamino]cyclohexan-1-ol

>  <PUBCHEM_IUPAC_NAME>  (17) 
4-[(2-amino-3,5-dibromophenyl)methylamino]cyclohexan-1-ol

>  <PUBCHEM_IUPAC_SYSTEMATIC_NAME>  (17) 
4-[[2-azanyl-3,5-bis(bromanyl)phenyl]methylamino]cyclohexan-1-ol

>  <PUBCHEM_IUPAC_TRADITIONAL_NAME>  (17) 
4-[(2-amino-3,5-dibromo-benzyl)amino]cyclohexanol

>  <PUBCHEM_IUPAC_INCHI>  (17) 
InChI=1S/C13H18Br2N2O/c14-9-5-8(13(16)12(15)6-9)7-17-10-1-3-11(18)4-2-10/h5-6,10-11,17-18H,1-4,7,16H2

>  <PUBCHEM_IUPAC_INCHIKEY>  (17) 
JBDGDEWWOUBZPM-UHFFFAOYSA-N

>  <PUBCHEM_XLOGP3_AA>  (17) 
2.6

>  <PUBCHEM_EXACT_MASS>  (17) 
377.97654

>  <PUBCHEM_MOLECULAR_FORMULA>  (17) 
C13H18Br2N2O

>  <PUBCHEM_MOLECULAR_WEIGHT>  (17) 
378.10

>  <PUBCHEM_SMILES>  (17) 
C1CC(CCC1NCC2=C(C(=CC(=C2)Br)Br)N)O

>  <PUBCHEM_CONNECTIVITY_SMILES>  (17) 
C1CC(CCC1NCC2=C(C(=CC(=C2)Br)Br)N)O

>  <PUBCHEM_CACTVS_TPSA>  (17) 
58.3

>  <PUBCHEM_MONOISOTOPIC_WEIGHT>  (17) 
375.97859

>  <PUBCHEM_TOTAL_CHARGE>  (17) 
0

>  <PUBCHEM_HEAVY_ATOM_COUNT>  (17) 
18

>  <PUBCHEM_ATOM_DEF_STEREO_COUNT>  (17) 
0

>  <PUBCHEM_ATOM_UDEF_STEREO_COUNT>  (17) 
0

>  <PUBCHEM_BOND_DEF_STEREO_COUNT>  (17) 
0

>  <PUBCHEM_BOND_UDEF_STEREO_COUNT>  (17) 
0

>  <PUBCHEM_ISOTOPIC_ATOM_COUNT>  (17) 
0

>  <PUBCHEM_COMPONENT_COUNT>  (17) 
1

>  <PUBCHEM_CACTVS_TAUTO_COUNT>  (17) 
-1

>  <PUBCHEM_COORDINATE_TYPE>  (17) 
1
5
255

>  <PUBCHEM_BONDANNOTATIONS>  (17) 
13  14  8
13  15  8
14  16  8
15  17  8
16  18  8
17  18  8

$$$$
2223
     RDKit          2D

 53 52  0  0  1  0  0  0  0  0999 V2000
    6.3301   -6.5670    0.0000 P   0  0  0  0  0  0  0  0  0  0  0  0
    9.7942   -4.5670    0.0000 O   0  0  0  0  0  0  0  0  0  0  0  0
    5.4641   -7.0670    0.0000 O   0  0  0  0  0  0  0  0  0  0  0  0
    7.1962   -6.0670    0.0000 O   0  0  0  0  0  0  0  0  0  0  0  0
    9.7942   -6.5670    0.0000 O   0  0  0  0  0  0  0  0  0  0  0  0
    5.8301   -5.7010    0.0000 O   0  0  0  0  0  0  0  0  0  0  0  0
    6.8301   -7.4330    0.0000 O   0  0  0  0  0  0  0  0  0  0  0  0
   10.6603   -5.0670    0.0000 O   0  0  0  0  0  0  0  0  0  0  0  0
    2.8660   -6.5670    0.0000 N   0  0  0  0  0  0  0  0  0  0  0  0
   13.2583    1.4330    0.0000 C   0  0  0  0  0  0  0  0  0  0  0  0
   12.3923    0.9330    0.0000 C   0  0  0  0  0  0  0  0  0  0  0  0
   13.2583    2.4330    0.0000 C   0  0  0  0  0  0  0  0  0  0  0  0
   12.3923   -0.0670    0.0000 C   0  0  0  0  0  0  0  0  0  0  0  0
   14.1244    2.9330    0.0000 C   0  0  0  0  0  0  0  0  0  0  0  0
   11.5263   -0.5670    0.0000 C   0  0  0  0  0  0  0  0  0  0  0  0
   14.1244    3.9330    0.0000 C   0  0  0  0  0  0  0  0  0  0  0  0
   11.5263   -1.5670    0.0000 C   0  0  0  0  0  0  0  0  0  0  0  0
   14.9904    4.4330    0.0000 C   0  0  0  0  0  0  0  0  0  0  0  0
   10.6603   -2.0670    0.0000 C   0  0  0  0  0  0  0  0  0  0  0  0
   14.9904    5.4330    0.0000 C   0  0  0  0  0  0  0  0  0  0  0  0
    3.7321   -7.0670    0.0000 C   0  0  0  0  0  0  0  0  0  0  0  0
   10.6603   -3.0670    0.0000 C   0  0  0  0  0  0  0  0  0  0  0  0
   15.8564    5.9330    0.0000 C   0  0  0  0  0  0  0  0  0  0  0  0
    2.0000   -6.0670    0.0000 C   0  0  0  0  0  0  0  0  0  0  0  0
    2.3660   -7.4330    0.0000 C   0  0  0  0  0  0  0  0  0  0  0  0
    3.3660   -5.7010    0.0000 C   0  0  0  0  0  0  0  0  0  0  0  0
    4.5981   -6.5670    0.0000 C   0  0  0  0  0  0  0  0  0  0  0  0
   15.8564    6.9330    0.0000 C   0  0  0  0  0  0  0  0  0  0  0  0
    9.7942   -3.5670    0.0000 C   0  0  0  0  0  0  0  0  0  0  0  0
   16.7224    7.4330    0.0000 C   0  0  0  0  0  0  0  0  0  0  0  0
    8.9282   -5.0670    0.0000 C   0  0  0  0  0  0  0  0  0  0  0  0
    8.9282   -6.0670    0.0000 C   0  0  0  0  0  0  0  0  0  0  0  0
    8.0622   -6.5670    0.0000 C   0  0  0  0  0  0  0  0  0  0  0  0
   10.6603   -6.0670    0.0000 C   0  0  0  0  0  0  0  0  0  0  0  0
   11.5263   -6.5670    0.0000 C   0  0  0  0  0  0  0  0  0  0  0  0
   12.3923   -6.0670    0.0000 C   0  0  0  0  0  0  0  0  0  0  0  0
   13.2583   -6.5670    0.0000 C   0  0  0  0  0  0  0  0  0  0  0  0
   14.1244   -6.0670    0.0000 C   0  0  0  0  0  0  0  0  0  0  0  0
   25.3827   -6.5670    0.0000 C   0  0  0  0  0  0  0  0  0  0  0  0
   24.5167   -6.0670    0.0000 C   0  0  0  0  0  0  0  0  0  0  0  0
   26.2487   -6.0670    0.0000 C   0  0  0  0  0  0  0  0  0  0  0  0
   23.6506   -6.5670    0.0000 C   0  0  0  0  0  0  0  0  0  0  0  0
   14.9904   -6.5670    0.0000 C   0  0  0  0  0  0  0  0  0  0  0  0
   15.8564   -6.0670    0.0000 C   0  0  0  0  0  0  0  0  0  0  0  0
   27.1147   -6.5670    0.0000 C   0  0  0  0  0  0  0  0  0  0  0  0
   22.7846   -6.0670    0.0000 C   0  0  0  0  0  0  0  0  0  0  0  0
   21.9186   -6.5670    0.0000 C   0  0  0  0  0  0  0  0  0  0  0  0
   16.7224   -6.5670    0.0000 C   0  0  0  0  0  0  0  0  0  0  0  0
   21.0526   -6.0670    0.0000 C   0  0  0  0  0  0  0  0  0  0  0  0
   17.5885   -6.0670    0.0000 C   0  0  0  0  0  0  0  0  0  0  0  0
   18.4545   -6.5670    0.0000 C   0  0  0  0  0  0  0  0  0  0  0  0
   20.1865   -6.5670    0.0000 C   0  0  0  0  0  0  0  0  0  0  0  0
   19.3205   -6.0670    0.0000 C   0  0  0  0  0  0  0  0  0  0  0  0
  1  3  1  0
  1  4  1  0
  1  6  1  0
  1  7  2  0
  2 29  1  0
  2 31  1  0
  3 27  1  0
  4 33  1  0
  5 32  1  0
  5 34  1  0
  8 34  2  0
  9 21  1  0
  9 24  1  0
  9 25  1  0
  9 26  1  0
 10 11  1  0
 10 12  1  0
 11 13  1  0
 12 14  1  0
 13 15  1  0
 14 16  1  0
 15 17  1  0
 16 18  1  0
 17 19  1  0
 18 20  1  0
 19 22  1  0
 20 23  1  0
 21 27  1  0
 22 29  1  0
 23 28  1  0
 28 30  1  0
 31 32  1  0
 32 33  1  0
 34 35  1  0
 35 36  1  0
 36 37  1  0
 37 38  1  0
 38 43  2  3
 39 40  1  0
 39 41  1  0
 40 42  1  0
 41 45  1  0
 42 46  1  0
 43 44  1  0
 44 48  1  0
 46 47  2  3
 47 49  1  0
 48 50  2  3
 49 52  1  0
 50 51  1  0
 51 53  1  0
 52 53  2  3
M  CHG  1   9   1
M  END
>  <PUBCHEM_COMPOUND_CID>  (18) 
2223

>  <PUBCHEM_COMPOUND_CANONICALIZED>  (18) 
1

>  <PUBCHEM_CACTVS_COMPLEXITY>  (18) 
989

>  <PUBCHEM_CACTVS_HBOND_ACCEPTOR>  (18) 
7

>  <PUBCHEM_CACTVS_HBOND_DONOR>  (18) 
1

>  <PUBCHEM_CACTVS_ROTATABLE_BOND>  (18) 
40

>  <PUBCHEM_CACTVS_SUBSKEYS>  (18) 
AAADcfB+OAIAAAAAAAAAAAAAAAAAAAAAAAAAAAAAAAAAAAAAAAAAHgAACCAACBThgAYCCAMABRCIQCDSCIAAAAAgAAAICAEIAAgDABIAAQACAAAFgAAaAAOIwKAAAAAAAAAAAAAAAAAAAAAAAAAAAAAAAA==

>  <PUBCHEM_IUPAC_OPENEYE_NAME>  (18) 
2-[(3-hexadecoxy-2-icosa-5,8,11,14-tetraenoyloxy-propoxy)-hydroxy-phosphoryl]oxyethyl-trimethyl-ammonium

>  <PUBCHEM_IUPAC_CAS_NAME>  (18) 
2-[[3-hexadecoxy-2-(1-oxoeicosa-5,8,11,14-tetraenoxy)propoxy]-hydroxyphosphoryl]oxyethyl-trimethylammonium

>  <PUBCHEM_IUPAC_NAME_MARKUP>  (18) 
2-[(3-hexadecoxy-2-icosa-5,8,11,14-tetraenoyloxypropoxy)-hydroxyphosphoryl]oxyethyl-trimethylazanium

>  <PUBCHEM_IUPAC_NAME>  (18) 
2-[(3-hexadecoxy-2-icosa-5,8,11,14-tetraenoyloxypropoxy)-hydroxyphosphoryl]oxyethyl-trimethylazanium

>  <PUBCHEM_IUPAC_SYSTEMATIC_NAME>  (18) 
2-[(3-hexadecoxy-2-icosa-5,8,11,14-tetraenoyloxy-propoxy)-oxidanyl-phosphoryl]oxyethyl-trimethyl-azanium

>  <PUBCHEM_IUPAC_TRADITIONAL_NAME>  (18) 
2-[(3-cetyloxy-2-eicosa-5,8,11,14-tetraenoyloxy-propoxy)-hydroxy-phosphoryl]oxyethyl-trimethyl-ammonium

>  <PUBCHEM_IUPAC_INCHI>  (18) 
InChI=1S/C44H82NO7P/c1-6-8-10-12-14-16-18-20-22-23-24-25-27-29-31-33-35-37-44(46)52-43(42-51-53(47,48)50-40-38-45(3,4)5)41-49-39-36-34-32-30-28-26-21-19-17-15-13-11-9-7-2/h14,16,20,22,24-25,29,31,43H,6-13,15,17-19,21,23,26-28,30,32-42H2,1-5H3/p+1

>  <PUBCHEM_IUPAC_INCHIKEY>  (18) 
DUUSFCFZBREELS-UHFFFAOYSA-O

>  <PUBCHEM_XLOGP3_AA>  (18) 
13.1

>  <PUBCHEM_EXACT_MASS>  (18) 
768.59071598

>  <PUBCHEM_MOLECULAR_FORMULA>  (18) 
C44H83NO7P+

>  <PUBCHEM_MOLECULAR_WEIGHT>  (18) 
769.1

>  <PUBCHEM_SMILES>  (18) 
CCCCCCCCCCCCCCCCOCC(COP(=O)(O)OCC[N+](C)(C)C)OC(=O)CCCC=CCC=CCC=CCC=CCCCCC

>  <PUBCHEM_CONNECTIVITY_SMILES>  (18) 
CCCCCCCCCCCCCCCCOCC(COP(=O)(O)OCC[N+](C)(C)C)OC(=O)CCCC=CCC=CCC=CCC=CCCCCC

>  <PUBCHEM_CACTVS_TPSA>  (18) 
91.3

>  <PUBCHEM_MONOISOTOPIC_WEIGHT>  (18) 
768.59071598

>  <PUBCHEM_TOTAL_CHARGE>  (18) 
1

>  <PUBCHEM_HEAVY_ATOM_COUNT>  (18) 
53

>  <PUBCHEM_ATOM_DEF_STEREO_COUNT>  (18) 
0

>  <PUBCHEM_ATOM_UDEF_STEREO_COUNT>  (18) 
1

>  <PUBCHEM_BOND_DEF_STEREO_COUNT>  (18) 
0

>  <PUBCHEM_BOND_UDEF_STEREO_COUNT>  (18) 
4

>  <PUBCHEM_ISOTOPIC_ATOM_COUNT>  (18) 
0

>  <PUBCHEM_COMPONENT_COUNT>  (18) 
1

>  <PUBCHEM_CACTVS_TAUTO_COUNT>  (18) 
-1

>  <PUBCHEM_COORDINATE_TYPE>  (18) 
1
5
255

>  <PUBCHEM_BONDANNOTATIONS>  (18) 
32  102  3
38  43  1
46  47  1
48  50  1
52  53  1

$$$$
2322
     RDKit          2D

 26 26  0  0  1  0  0  0  0  0999 V2000
   11.9557   -1.7083    0.0000 O   0  0  0  0  0  0  0  0  0  0  0  0
    5.8090   -1.2633    0.0000 O   0  0  0  0  0  0  0  0  0  0  0  0
    6.8746    1.1584    0.0000 O   0  0  0  0  0  0  0  0  0  0  0  0
    4.5394   -0.0852    0.0000 O   0  0  0  0  0  0  0  0  0  0  0  0
    8.1745   -3.5292    0.0000 O   0  0  0  0  0  0  0  0  0  0  0  0
    5.6050    2.3365    0.0000 O   0  0  0  0  0  0  0  0  0  0  0  0
    8.1443   -0.0197    0.0000 O   0  0  0  0  0  0  0  0  0  0  0  0
    7.7589   -1.7083    0.0000 N   0  0  0  0  0  0  0  0  0  0  0  0
    9.8573   -3.3396    0.0000 N   0  0  0  0  0  0  0  0  0  0  0  0
    8.7338   -1.9308    0.0000 C   0  0  0  0  0  0  0  0  0  0  0  0
    9.3573   -1.1490    0.0000 C   0  0  0  0  0  0  0  0  0  0  0  0
   10.3573   -1.1490    0.0000 C   0  0  0  0  0  0  0  0  0  0  0  0
   10.9808   -1.9308    0.0000 C   0  0  0  0  0  0  0  0  0  0  0  0
    6.1945    0.4254    0.0000 C   0  0  0  0  0  0  0  0  0  0  0  0
    6.4892   -0.5302    0.0000 C   0  0  0  0  0  0  0  0  0  0  0  0
   10.7583   -2.9058    0.0000 C   0  0  0  0  0  0  0  0  0  0  0  0
    5.2195    0.6479    0.0000 C   0  0  0  0  0  0  0  0  0  0  0  0
    8.9564   -2.9058    0.0000 C   0  0  0  0  0  0  0  0  0  0  0  0
    7.4642   -0.7527    0.0000 C   0  0  0  0  0  0  0  0  0  0  0  0
    4.9248    1.6034    0.0000 C   0  0  0  0  0  0  0  0  0  0  0  0
    3.9499    1.8260    0.0000 C   0  0  0  0  0  0  0  0  0  0  0  0
    3.6551    2.7816    0.0000 C   0  0  0  0  0  0  0  0  0  0  0  0
    2.6802    3.0041    0.0000 C   0  0  0  0  0  0  0  0  0  0  0  0
    4.8341   -1.0407    0.0000 C   0  0  0  0  0  0  0  0  0  0  0  0
    2.3854    3.9596    0.0000 C   0  0  0  0  0  0  0  0  0  0  0  0
    2.0000    2.2710    0.0000 C   0  0  0  0  0  0  0  0  0  0  0  0
  1 13  1  0
  2 15  1  0
  2 24  1  0
  3 14  1  0
  4 17  1  0
  5 18  2  0
  6 20  1  0
  7 19  2  0
  8 10  1  0
  8 19  1  0
  9 16  1  0
  9 18  1  0
 10 11  1  0
 10 18  1  0
 11 12  1  0
 12 13  1  0
 13 16  1  0
 14 15  1  0
 14 17  1  0
 15 19  1  0
 17 20  1  0
 20 21  1  0
 21 22  2  3
 22 23  1  0
 23 25  1  0
 23 26  1  0
M  END
>  <PUBCHEM_COMPOUND_CID>  (19) 
2322

>  <PUBCHEM_COMPOUND_CANONICALIZED>  (19) 
1

>  <PUBCHEM_CACTVS_COMPLEXITY>  (19) 
498

>  <PUBCHEM_CACTVS_HBOND_ACCEPTOR>  (19) 
7

>  <PUBCHEM_CACTVS_HBOND_DONOR>  (19) 
6

>  <PUBCHEM_CACTVS_ROTATABLE_BOND>  (19) 
8

>  <PUBCHEM_CACTVS_SUBSKEYS>  (19) 
AAADceB7OAAAAAAAAAAAAAAAAAAAAAAAAAAAAAAABYAAAAAAAAAAHgAQCAAADTzhgAYCAALABgCIACFSEAIAAAAgAAAICIHIAAgDVBYAgSQVUAAH9gCbEAP6HAJAAAAAAAAAAAAAAAAAAAAAAAAAAAAAAA==

>  <PUBCHEM_IUPAC_OPENEYE_NAME>  (19) 
3,4,5-trihydroxy-N-(6-hydroxy-2-oxo-azepan-3-yl)-2-methoxy-8-methyl-non-6-enamide

>  <PUBCHEM_IUPAC_CAS_NAME>  (19) 
3,4,5-trihydroxy-N-(6-hydroxy-2-oxo-3-azepanyl)-2-methoxy-8-methyl-6-nonenamide

>  <PUBCHEM_IUPAC_NAME_MARKUP>  (19) 
3,4,5-trihydroxy-<I>N</I>-(6-hydroxy-2-oxoazepan-3-yl)-2-methoxy-8-methylnon-6-enamide

>  <PUBCHEM_IUPAC_NAME>  (19) 
3,4,5-trihydroxy-N-(6-hydroxy-2-oxoazepan-3-yl)-2-methoxy-8-methylnon-6-enamide

>  <PUBCHEM_IUPAC_SYSTEMATIC_NAME>  (19) 
2-methoxy-8-methyl-3,4,5-tris(oxidanyl)-N-(6-oxidanyl-2-oxidanylidene-azepan-3-yl)non-6-enamide

>  <PUBCHEM_IUPAC_TRADITIONAL_NAME>  (19) 
3,4,5-trihydroxy-N-(6-hydroxy-2-keto-azepan-3-yl)-2-methoxy-8-methyl-non-6-enamide

>  <PUBCHEM_IUPAC_INCHI>  (19) 
InChI=1S/C17H30N2O7/c1-9(2)4-7-12(21)13(22)14(23)15(26-3)17(25)19-11-6-5-10(20)8-18-16(11)24/h4,7,9-15,20-23H,5-6,8H2,1-3H3,(H,18,24)(H,19,25)

>  <PUBCHEM_IUPAC_INCHIKEY>  (19) 
QUZZOPFZTPGKCS-UHFFFAOYSA-N

>  <PUBCHEM_XLOGP3_AA>  (19) 
-1

>  <PUBCHEM_EXACT_MASS>  (19) 
374.20530130

>  <PUBCHEM_MOLECULAR_FORMULA>  (19) 
C17H30N2O7

>  <PUBCHEM_MOLECULAR_WEIGHT>  (19) 
374.4

>  <PUBCHEM_SMILES>  (19) 
CC(C)C=CC(C(C(C(C(=O)NC1CCC(CNC1=O)O)OC)O)O)O

>  <PUBCHEM_CONNECTIVITY_SMILES>  (19) 
CC(C)C=CC(C(C(C(C(=O)NC1CCC(CNC1=O)O)OC)O)O)O

>  <PUBCHEM_CACTVS_TPSA>  (19) 
148

>  <PUBCHEM_MONOISOTOPIC_WEIGHT>  (19) 
374.20530130

>  <PUBCHEM_TOTAL_CHARGE>  (19) 
0

>  <PUBCHEM_HEAVY_ATOM_COUNT>  (19) 
26

>  <PUBCHEM_ATOM_DEF_STEREO_COUNT>  (19) 
0

>  <PUBCHEM_ATOM_UDEF_STEREO_COUNT>  (19) 
6

>  <PUBCHEM_BOND_DEF_STEREO_COUNT>  (19) 
0

>  <PUBCHEM_BOND_UDEF_STEREO_COUNT>  (19) 
1

>  <PUBCHEM_ISOTOPIC_ATOM_COUNT>  (19) 
0

>  <PUBCHEM_COMPONENT_COUNT>  (19) 
1

>  <PUBCHEM_CACTVS_TAUTO_COUNT>  (19) 
-1

>  <PUBCHEM_COORDINATE_TYPE>  (19) 
1
5
255

>  <PUBCHEM_BONDANNOTATIONS>  (19) 
13  1  3
15  19  3
21  22  1
14  3  3
17  4  3
20  6  3
10  8  3

$$$$
2425
     RDKit          2D

 35 36  0  0  1  0  0  0  0  0999 V2000
    9.0590    0.9097    0.0000 Br  0  0  0  0  0  0  0  0  0  0  0  0
   10.7532    1.2698    0.0000 Br  0  0  0  0  0  0  0  0  0  0  0  0
    6.0010   -2.5000    0.0000 O   0  0  0  0  0  0  0  0  0  0  0  0
    7.2454   -3.0540    0.0000 O   0  0  0  0  0  0  0  0  0  0  0  0
   11.3769   -1.6647    0.0000 O   0  0  0  0  0  0  0  0  0  0  0  0
   10.8417   -3.3119    0.0000 O   0  0  0  0  0  0  0  0  0  0  0  0
    3.4030    0.0000    0.0000 O   0  0  0  0  0  0  0  0  0  0  0  0
    2.5369    4.5000    0.0000 O   0  0  0  0  0  0  0  0  0  0  0  0
    6.8671   -1.0000    0.0000 N   0  0  0  0  0  0  0  0  0  0  0  0
    8.9396   -2.6939    0.0000 N   0  0  0  0  0  0  0  0  0  0  0  0
    5.1350    0.0000    0.0000 N   0  0  0  0  0  0  0  0  0  0  0  0
    7.7806   -1.4067    0.0000 C   0  0  0  0  0  0  0  0  0  0  0  0
    8.4497   -0.6636    0.0000 C   0  0  0  0  0  0  0  0  0  0  0  0
    7.9497    0.2024    0.0000 C   0  0  0  0  0  0  0  0  0  0  0  0
    6.9716   -0.0055    0.0000 C   0  0  0  0  0  0  0  0  0  0  0  0
    6.0010   -1.5000    0.0000 C   0  0  0  0  0  0  0  0  0  0  0  0
    7.9885   -2.3849    0.0000 C   0  0  0  0  0  0  0  0  0  0  0  0
    5.1350   -1.0000    0.0000 C   0  0  0  0  0  0  0  0  0  0  0  0
    4.2690   -1.5000    0.0000 C   0  0  0  0  0  0  0  0  0  0  0  0
    9.6827   -2.0248    0.0000 C   0  0  0  0  0  0  0  0  0  0  0  0
    9.4748   -1.0466    0.0000 C   0  0  0  0  0  0  0  0  0  0  0  0
    4.2690   -2.5000    0.0000 C   0  0  0  0  0  0  0  0  0  0  0  0
   10.2180   -0.3775    0.0000 C   0  0  0  0  0  0  0  0  0  0  0  0
    4.2690    0.5000    0.0000 C   0  0  0  0  0  0  0  0  0  0  0  0
    4.2690    1.5000    0.0000 C   0  0  0  0  0  0  0  0  0  0  0  0
    5.1350   -3.0000    0.0000 C   0  0  0  0  0  0  0  0  0  0  0  0
    3.4030   -3.0000    0.0000 C   0  0  0  0  0  0  0  0  0  0  0  0
   10.0100    0.6007    0.0000 C   0  0  0  0  0  0  0  0  0  0  0  0
    3.4030    2.0000    0.0000 C   0  0  0  0  0  0  0  0  0  0  0  0
    5.1350   -4.0000    0.0000 C   0  0  0  0  0  0  0  0  0  0  0  0
    3.4030   -4.0000    0.0000 C   0  0  0  0  0  0  0  0  0  0  0  0
    3.4030    3.0000    0.0000 C   0  0  0  0  0  0  0  0  0  0  0  0
    4.2690   -4.5000    0.0000 C   0  0  0  0  0  0  0  0  0  0  0  0
    2.5369    3.5000    0.0000 C   0  0  0  0  0  0  0  0  0  0  0  0
   10.6338   -2.3338    0.0000 B   0  0  0  0  0  0  0  0  0  0  0  0
  1 28  1  0
  2 28  1  0
  3 16  2  0
  4 17  2  0
  5 35  1  0
  6 35  1  0
  7 24  2  0
  8 34  2  0
  9 12  1  0
  9 15  1  0
  9 16  1  0
 10 17  1  0
 10 20  1  0
 11 18  1  0
 11 24  1  0
 12 13  1  0
 12 17  1  0
 13 14  1  0
 14 15  1  0
 16 18  1  0
 18 19  1  0
 19 22  1  0
 20 21  1  0
 20 35  1  0
 21 23  1  0
 22 26  2  0
 22 27  1  0
 23 28  1  0
 24 25  1  0
 25 29  1  0
 26 30  1  0
 27 31  2  0
 29 32  1  0
 30 33  2  0
 31 33  1  0
 32 34  1  0
M  END
>  <PUBCHEM_COMPOUND_CID>  (20) 
2425

>  <PUBCHEM_COMPOUND_CANONICALIZED>  (20) 
1

>  <PUBCHEM_CACTVS_COMPLEXITY>  (20) 
709

>  <PUBCHEM_CACTVS_HBOND_ACCEPTOR>  (20) 
6

>  <PUBCHEM_CACTVS_HBOND_DONOR>  (20) 
4

>  <PUBCHEM_CACTVS_ROTATABLE_BOND>  (20) 
14

>  <PUBCHEM_CACTVS_SUBSKEYS>  (20) 
AAADcfJ7OAAAGAAAAAAAAAAAAAAAAWAAAAAwAAAAAAAAAAABAAAoHgBQCAABTCjhmAYwAIPAAACIAilSkAACAAAgAAAIiIGIAKgIYDKAkTGUIAAglgCIiAcYi4COAAAAAAAAAAAAAAAAAAAAAAAAAAAAAA==

>  <PUBCHEM_IUPAC_OPENEYE_NAME>  (20) 
[4,4-dibromo-1-[[1-[2-(5-oxopentanoylamino)-3-phenyl-propanoyl]pyrrolidine-2-carbonyl]amino]butyl]boronic acid

>  <PUBCHEM_IUPAC_CAS_NAME>  (20) 
[4,4-dibromo-1-[[[1-[2-(1,5-dioxopentylamino)-1-oxo-3-phenylpropyl]-2-pyrrolidinyl]-oxomethyl]amino]butyl]boronic acid

>  <PUBCHEM_IUPAC_NAME_MARKUP>  (20) 
[4,4-dibromo-1-[[1-[2-(5-oxopentanoylamino)-3-phenylpropanoyl]pyrrolidine-2-carbonyl]amino]butyl]boronic acid

>  <PUBCHEM_IUPAC_NAME>  (20) 
[4,4-dibromo-1-[[1-[2-(5-oxopentanoylamino)-3-phenylpropanoyl]pyrrolidine-2-carbonyl]amino]butyl]boronic acid

>  <PUBCHEM_IUPAC_SYSTEMATIC_NAME>  (20) 
[4,4-bis(bromanyl)-1-[[1-[2-(5-oxidanylidenepentanoylamino)-3-phenyl-propanoyl]pyrrolidin-2-yl]carbonylamino]butyl]boronic acid

>  <PUBCHEM_IUPAC_TRADITIONAL_NAME>  (20) 
[4,4-dibromo-1-[[1-[2-(5-ketopentanoylamino)-3-phenyl-propanoyl]prolyl]amino]butyl]boronic acid

>  <PUBCHEM_IUPAC_INCHI>  (20) 
InChI=1S/C23H32BBr2N3O6/c25-20(26)12-11-19(24(34)35)28-22(32)18-9-6-13-29(18)23(33)17(15-16-7-2-1-3-8-16)27-21(31)10-4-5-14-30/h1-3,7-8,14,17-20,34-35H,4-6,9-13,15H2,(H,27,31)(H,28,32)

>  <PUBCHEM_IUPAC_INCHIKEY>  (20) 
UBBUVYGQLRDKJX-UHFFFAOYSA-N

>  <PUBCHEM_EXACT_MASS>  (20) 
617.07304

>  <PUBCHEM_MOLECULAR_FORMULA>  (20) 
C23H32BBr2N3O6

>  <PUBCHEM_MOLECULAR_WEIGHT>  (20) 
617.1

>  <PUBCHEM_SMILES>  (20) 
B(C(CCC(Br)Br)NC(=O)C1CCCN1C(=O)C(CC2=CC=CC=C2)NC(=O)CCCC=O)(O)O

>  <PUBCHEM_CONNECTIVITY_SMILES>  (20) 
B(C(CCC(Br)Br)NC(=O)C1CCCN1C(=O)C(CC2=CC=CC=C2)NC(=O)CCCC=O)(O)O

>  <PUBCHEM_CACTVS_TPSA>  (20) 
136

>  <PUBCHEM_MONOISOTOPIC_WEIGHT>  (20) 
615.07509

>  <PUBCHEM_TOTAL_CHARGE>  (20) 
0

>  <PUBCHEM_HEAVY_ATOM_COUNT>  (20) 
35

>  <PUBCHEM_ATOM_DEF_STEREO_COUNT>  (20) 
0

>  <PUBCHEM_ATOM_UDEF_STEREO_COUNT>  (20) 
3

>  <PUBCHEM_BOND_DEF_STEREO_COUNT>  (20) 
0

>  <PUBCHEM_BOND_UDEF_STEREO_COUNT>  (20) 
0

>  <PUBCHEM_ISOTOPIC_ATOM_COUNT>  (20) 
0

>  <PUBCHEM_COMPONENT_COUNT>  (20) 
1

>  <PUBCHEM_CACTVS_TAUTO_COUNT>  (20) 
-1

>  <PUBCHEM_COORDINATE_TYPE>  (20) 
1
5
255

>  <PUBCHEM_BONDANNOTATIONS>  (20) 
12  17  3
18  19  3
20  21  3
22  26  8
22  27  8
26  30  8
27  31  8
30  33  8
31  33  8

$$$$
2529
     RDKit          2D

 31 28  0  0  1  0  0  0  0  0999 V2000
   11.1972   -0.4050    0.0000 Ca  0  0  0  0  0 15  0  0  0  0  0  0
    5.1350    1.0950    0.0000 O   0  0  0  0  0  0  0  0  0  0  0  0
   17.2594    1.0950    0.0000 O   0  0  0  0  0  0  0  0  0  0  0  0
    2.5369   -0.4050    0.0000 O   0  0  0  0  0  0  0  0  0  0  0  0
   19.8574   -0.4050    0.0000 O   0  0  0  0  0  0  0  0  0  0  0  0
    6.0010   -1.4050    0.0000 O   0  0  0  0  0  0  0  0  0  0  0  0
   16.3933   -1.4050    0.0000 O   0  0  0  0  0  0  0  0  0  0  0  0
   10.3312    0.0950    0.0000 O   0  0  0  0  0  0  0  0  0  0  0  0
   12.0632    0.0950    0.0000 O   0  0  0  0  0  0  0  0  0  0  0  0
    9.4651   -1.4050    0.0000 O   0  0  0  0  0  0  0  0  0  0  0  0
   12.9292   -1.4050    0.0000 O   0  0  0  0  0  0  0  0  0  0  0  0
    6.8671    0.0950    0.0000 N   0  0  0  0  0  0  0  0  0  0  0  0
   15.5273    0.0950    0.0000 N   0  0  0  0  0  0  0  0  0  0  0  0
    4.2690   -0.4050    0.0000 C   0  0  0  0  0  0  0  0  0  0  0  0
   18.1254   -0.4050    0.0000 C   0  0  0  0  0  0  0  0  0  0  0  0
    5.1350    0.0950    0.0000 C   0  0  0  0  0  0  0  0  0  0  0  0
   17.2594    0.0950    0.0000 C   0  0  0  0  0  0  0  0  0  0  0  0
    3.4030   -0.9050    0.0000 C   0  0  0  0  0  0  0  0  0  0  0  0
   18.9914   -0.9050    0.0000 C   0  0  0  0  0  0  0  0  0  0  0  0
    3.7690    0.4610    0.0000 C   0  0  0  0  0  0  0  0  0  0  0  0
    4.7690   -1.2710    0.0000 C   0  0  0  0  0  0  0  0  0  0  0  0
   18.6254    0.4610    0.0000 C   0  0  0  0  0  0  0  0  0  0  0  0
   17.6254   -1.2710    0.0000 C   0  0  0  0  0  0  0  0  0  0  0  0
    6.0010   -0.4050    0.0000 C   0  0  0  0  0  0  0  0  0  0  0  0
   16.3933   -0.4050    0.0000 C   0  0  0  0  0  0  0  0  0  0  0  0
    7.7331   -0.4050    0.0000 C   0  0  0  0  0  0  0  0  0  0  0  0
   14.6613   -0.4050    0.0000 C   0  0  0  0  0  0  0  0  0  0  0  0
    8.5991    0.0950    0.0000 C   0  0  0  0  0  0  0  0  0  0  0  0
   13.7953    0.0950    0.0000 C   0  0  0  0  0  0  0  0  0  0  0  0
    9.4651   -0.4050    0.0000 C   0  0  0  0  0  0  0  0  0  0  0  0
   12.9292   -0.4050    0.0000 C   0  0  0  0  0  0  0  0  0  0  0  0
  2 16  1  0
  3 17  1  0
  4 18  1  0
  5 19  1  0
  6 24  2  0
  7 25  2  0
  8 30  1  0
  9 31  1  0
 10 30  2  0
 11 31  2  0
 12 24  1  0
 12 26  1  0
 13 25  1  0
 13 27  1  0
 14 16  1  0
 14 18  1  0
 14 20  1  0
 14 21  1  0
 15 17  1  0
 15 19  1  0
 15 22  1  0
 15 23  1  0
 16 24  1  0
 17 25  1  0
 26 28  1  0
 27 29  1  0
 28 30  1  0
 29 31  1  0
M  CHG  3   1   2   8  -1   9  -1
M  END
>  <PUBCHEM_COMPOUND_CID>  (21) 
2529

>  <PUBCHEM_COMPOUND_CANONICALIZED>  (21) 
1

>  <PUBCHEM_CACTVS_COMPLEXITY>  (21) 
534

>  <PUBCHEM_CACTVS_HBOND_ACCEPTOR>  (21) 
10

>  <PUBCHEM_CACTVS_HBOND_DONOR>  (21) 
6

>  <PUBCHEM_CACTVS_ROTATABLE_BOND>  (21) 
14

>  <PUBCHEM_CACTVS_SUBSKEYS>  (21) 
AAADcfB7PAAAAAgAAAAAAAAAAAAAAAAAAAAAAAAAAAAAAAAAAAAAHgAQCAAADhThgAYCCALAAgAIAAGQGAIAAAAAAAAAAIFIAAACEBgAgAAEQAAHFgCQAAAiAAAJAAAAAAAAAAAAAAAAAAAAAAAAAAAAAA==

>  <PUBCHEM_IUPAC_OPENEYE_NAME>  (21) 
calcium;3-[(2,4-dihydroxy-3,3-dimethyl-butanoyl)amino]propanoate

>  <PUBCHEM_IUPAC_CAS_NAME>  (21) 
calcium;3-[(2,4-dihydroxy-3,3-dimethyl-1-oxobutyl)amino]propanoate

>  <PUBCHEM_IUPAC_NAME_MARKUP>  (21) 
calcium;3-[(2,4-dihydroxy-3,3-dimethylbutanoyl)amino]propanoate

>  <PUBCHEM_IUPAC_NAME>  (21) 
calcium;3-[(2,4-dihydroxy-3,3-dimethylbutanoyl)amino]propanoate

>  <PUBCHEM_IUPAC_SYSTEMATIC_NAME>  (21) 
calcium;3-[[3,3-dimethyl-2,4-bis(oxidanyl)butanoyl]amino]propanoate

>  <PUBCHEM_IUPAC_TRADITIONAL_NAME>  (21) 
calcium;3-[(2,4-dihydroxy-3,3-dimethyl-butanoyl)amino]propionate

>  <PUBCHEM_IUPAC_INCHI>  (21) 
InChI=1S/2C9H17NO5.Ca/c2*1-9(2,5-11)7(14)8(15)10-4-3-6(12)13;/h2*7,11,14H,3-5H2,1-2H3,(H,10,15)(H,12,13);/q;;+2/p-2

>  <PUBCHEM_IUPAC_INCHIKEY>  (21) 
FAPWYRCQGJNNSJ-UHFFFAOYSA-L

>  <PUBCHEM_EXACT_MASS>  (21) 
476.1682861

>  <PUBCHEM_MOLECULAR_FORMULA>  (21) 
C18H32CaN2O10

>  <PUBCHEM_MOLECULAR_WEIGHT>  (21) 
476.5

>  <PUBCHEM_SMILES>  (21) 
CC(C)(CO)C(C(=O)NCCC(=O)[O-])O.CC(C)(CO)C(C(=O)NCCC(=O)[O-])O.[Ca+2]

>  <PUBCHEM_CONNECTIVITY_SMILES>  (21) 
CC(C)(CO)C(C(=O)NCCC(=O)[O-])O.CC(C)(CO)C(C(=O)NCCC(=O)[O-])O.[Ca+2]

>  <PUBCHEM_CACTVS_TPSA>  (21) 
219

>  <PUBCHEM_MONOISOTOPIC_WEIGHT>  (21) 
476.1682861

>  <PUBCHEM_TOTAL_CHARGE>  (21) 
0

>  <PUBCHEM_HEAVY_ATOM_COUNT>  (21) 
31

>  <PUBCHEM_ATOM_DEF_STEREO_COUNT>  (21) 
0

>  <PUBCHEM_ATOM_UDEF_STEREO_COUNT>  (21) 
2

>  <PUBCHEM_BOND_DEF_STEREO_COUNT>  (21) 
0

>  <PUBCHEM_BOND_UDEF_STEREO_COUNT>  (21) 
0

>  <PUBCHEM_ISOTOPIC_ATOM_COUNT>  (21) 
0

>  <PUBCHEM_COMPONENT_COUNT>  (21) 
3

>  <PUBCHEM_CACTVS_TAUTO_COUNT>  (21) 
-1

>  <PUBCHEM_NONSTANDARDBOND>  (21) 
1  8  7
1  9  7

>  <PUBCHEM_COORDINATE_TYPE>  (21) 
1
5
255

>  <PUBCHEM_BONDANNOTATIONS>  (21) 
16  2  3
17  3  3

$$$$
2537
     RDKit          2D

 11 12  0  0  1  0  0  0  0  0999 V2000
    5.6137   -2.1590    0.0000 O   0  0  0  0  0  0  0  0  0  0  0  0
    3.2369    1.1644    0.0000 C   0  0  0  0  0  0  0  0  0  0  0  0
    3.7147   -0.7841    0.0000 C   0  0  0  0  0  0  0  0  0  0  0  0
    3.9735    0.1818    0.0000 C   0  0  0  0  0  0  0  0  0  0  0  0
    2.3420   -1.3761    0.0000 C   0  0  0  0  0  0  0  0  0  0  0  0
    2.0000   -0.4364    0.0000 C   0  0  0  0  0  0  0  0  0  0  0  0
    5.3725   -0.3270    0.0000 C   0  0  0  0  0  0  0  0  0  0  0  0
    5.1137   -1.2929    0.0000 C   0  0  0  0  0  0  0  0  0  0  0  0
    3.3415    2.1590    0.0000 C   0  0  0  0  0  0  0  0  0  0  0  0
    2.3234    1.5712    0.0000 C   0  0  0  0  0  0  0  0  0  0  0  0
    3.4559   -1.7500    0.0000 C   0  0  0  0  0  0  0  0  0  0  0  0
  1  8  2  0
  2  3  1  0
  2  4  1  0
  2  9  1  0
  2 10  1  0
  3  5  1  0
  3  8  1  0
  3 11  1  0
  4  6  1  0
  4  7  1  0
  5  6  1  0
  7  8  1  0
M  END
>  <PUBCHEM_COMPOUND_CID>  (22) 
2537

>  <PUBCHEM_COMPOUND_CANONICALIZED>  (22) 
1

>  <PUBCHEM_CACTVS_COMPLEXITY>  (22) 
217

>  <PUBCHEM_CACTVS_HBOND_ACCEPTOR>  (22) 
1

>  <PUBCHEM_CACTVS_HBOND_DONOR>  (22) 
0

>  <PUBCHEM_CACTVS_ROTATABLE_BOND>  (22) 
0

>  <PUBCHEM_CACTVS_SUBSKEYS>  (22) 
AAADceBwIAAAAAAAAAAAAAAAAAAAAYMAAAAwAAAAAAAAAAAAAAAAGgAAAAAADwSAgAACAAAAAAAIAIAQAAAAAAAAAAAAAAEAAAAAABIAAAAAAAAAAAAAAAEIiMCPgAAAAAAAAACAAAAAAAAAAQAACAAAAA==

>  <PUBCHEM_IUPAC_OPENEYE_NAME>  (22) 
1,7,7-trimethylnorbornan-2-one

>  <PUBCHEM_IUPAC_CAS_NAME>  (22) 
1,7,7-trimethyl-2-bicyclo[2.2.1]heptanone

>  <PUBCHEM_IUPAC_NAME_MARKUP>  (22) 
1,7,7-trimethylbicyclo[2.2.1]heptan-2-one

>  <PUBCHEM_IUPAC_NAME>  (22) 
1,7,7-trimethylbicyclo[2.2.1]heptan-2-one

>  <PUBCHEM_IUPAC_SYSTEMATIC_NAME>  (22) 
1,7,7-trimethylbicyclo[2.2.1]heptan-2-one

>  <PUBCHEM_IUPAC_TRADITIONAL_NAME>  (22) 
camphor

>  <PUBCHEM_IUPAC_INCHI>  (22) 
InChI=1S/C10H16O/c1-9(2)7-4-5-10(9,3)8(11)6-7/h7H,4-6H2,1-3H3

>  <PUBCHEM_IUPAC_INCHIKEY>  (22) 
DSSYKIVIOFKYAU-UHFFFAOYSA-N

>  <PUBCHEM_XLOGP3_AA>  (22) 
2.2

>  <PUBCHEM_EXACT_MASS>  (22) 
152.120115130

>  <PUBCHEM_MOLECULAR_FORMULA>  (22) 
C10H16O

>  <PUBCHEM_MOLECULAR_WEIGHT>  (22) 
152.23

>  <PUBCHEM_SMILES>  (22) 
CC1(C2CCC1(C(=O)C2)C)C

>  <PUBCHEM_CONNECTIVITY_SMILES>  (22) 
CC1(C2CCC1(C(=O)C2)C)C

>  <PUBCHEM_CACTVS_TPSA>  (22) 
17.1

>  <PUBCHEM_MONOISOTOPIC_WEIGHT>  (22) 
152.120115130

>  <PUBCHEM_TOTAL_CHARGE>  (22) 
0

>  <PUBCHEM_HEAVY_ATOM_COUNT>  (22) 
11

>  <PUBCHEM_ATOM_DEF_STEREO_COUNT>  (22) 
0

>  <PUBCHEM_ATOM_UDEF_STEREO_COUNT>  (22) 
2

>  <PUBCHEM_BOND_DEF_STEREO_COUNT>  (22) 
0

>  <PUBCHEM_BOND_UDEF_STEREO_COUNT>  (22) 
0

>  <PUBCHEM_ISOTOPIC_ATOM_COUNT>  (22) 
0

>  <PUBCHEM_COMPONENT_COUNT>  (22) 
1

>  <PUBCHEM_CACTVS_TAUTO_COUNT>  (22) 
-1

>  <PUBCHEM_COORDINATE_TYPE>  (22) 
1
5
255

>  <PUBCHEM_BONDANNOTATIONS>  (22) 
3  11  3
4  6  3

$$$$
2628
     RDKit          2D

 37 40  0  0  1  0  0  0  0  0999 V2000
    8.9714   -0.9475    0.0000 S   0  0  0  0  0  0  0  0  0  0  0  0
    6.3733    0.5525    0.0000 S   0  0  0  0  0  0  0  0  0  0  0  0
    5.4028    2.0470    0.0000 S   0  0  0  0  0  0  0  0  0  0  0  0
   15.8055   -1.4431    0.0000 S   0  0  0  0  0  0  0  0  0  0  0  0
   11.5513    1.2652    0.0000 O   0  0  0  0  0  0  0  0  0  0  0  0
    8.1054    2.5525    0.0000 O   0  0  0  0  0  0  0  0  0  0  0  0
    9.8374    2.5525    0.0000 O   0  0  0  0  0  0  0  0  0  0  0  0
   12.7786    0.0620    0.0000 O   0  0  0  0  0  0  0  0  0  0  0  0
   13.6683   -3.2859    0.0000 O   0  0  0  0  0  0  0  0  0  0  0  0
    2.6166    4.1865    0.0000 O   0  0  0  0  0  0  0  0  0  0  0  0
    2.4356    2.4640    0.0000 O   0  0  0  0  0  0  0  0  0  0  0  0
    9.8374    0.5525    0.0000 N   0  0  0  0  0  0  0  0  0  0  0  0
   11.5513   -1.1603    0.0000 N   0  0  0  0  0  0  0  0  0  0  0  0
   12.9626   -2.5774    0.0000 N   0  0  0  0  0  0  0  0  0  0  0  0
    4.5937    0.6457    0.0000 N   0  0  0  0  0  0  0  0  0  0  0  0
   14.5502   -0.4223    0.0000 N   0  0  0  0  0  0  0  0  0  0  0  0
   16.1796    0.2992    0.0000 N   0  0  0  0  0  0  0  0  0  0  0  0
    9.8374   -0.4475    0.0000 C   0  0  0  0  0  0  0  0  0  0  0  0
   10.8457   -0.4517    0.0000 C   0  0  0  0  0  0  0  0  0  0  0  0
   10.8457    0.5566    0.0000 C   0  0  0  0  0  0  0  0  0  0  0  0
    8.9714    1.0525    0.0000 C   0  0  0  0  0  0  0  0  0  0  0  0
    8.1054    0.5525    0.0000 C   0  0  0  0  0  0  0  0  0  0  0  0
    8.1054   -0.4475    0.0000 C   0  0  0  0  0  0  0  0  0  0  0  0
    7.2393    1.0525    0.0000 C   0  0  0  0  0  0  0  0  0  0  0  0
    8.9714    2.0525    0.0000 C   0  0  0  0  0  0  0  0  0  0  0  0
   12.5178   -0.9034    0.0000 C   0  0  0  0  0  0  0  0  0  0  0  0
   13.2234   -1.6120    0.0000 C   0  0  0  0  0  0  0  0  0  0  0  0
    5.5073    1.0525    0.0000 C   0  0  0  0  0  0  0  0  0  0  0  0
   14.1899   -1.3551    0.0000 C   0  0  0  0  0  0  0  0  0  0  0  0
    4.4246    2.2549    0.0000 C   0  0  0  0  0  0  0  0  0  0  0  0
    3.9246    1.3889    0.0000 C   0  0  0  0  0  0  0  0  0  0  0  0
   14.9657   -1.9861    0.0000 C   0  0  0  0  0  0  0  0  0  0  0  0
    4.0179    3.1684    0.0000 C   0  0  0  0  0  0  0  0  0  0  0  0
    2.9301    1.2843    0.0000 C   0  0  0  0  0  0  0  0  0  0  0  0
   15.5487   -0.4767    0.0000 C   0  0  0  0  0  0  0  0  0  0  0  0
    3.0233    3.2730    0.0000 C   0  0  0  0  0  0  0  0  0  0  0  0
   13.4075   -4.2513    0.0000 C   0  0  0  0  0  0  0  0  0  0  0  0
  1 18  1  0
  1 23  1  0
  2 24  1  0
  2 28  1  0
  3 28  1  0
  3 30  1  0
  4 32  1  0
  4 35  1  0
  5 20  2  0
  6 25  1  0
  7 25  2  0
  8 26  2  0
  9 14  1  0
  9 37  1  0
 10 36  1  0
 11 36  2  0
 12 18  1  0
 12 20  1  0
 12 21  1  0
 13 19  1  0
 13 26  1  0
 14 27  2  3
 15 28  2  0
 15 31  1  0
 16 29  1  0
 16 35  2  0
 17 35  1  0
 18 19  1  0
 19 20  1  0
 21 22  2  0
 21 25  1  0
 22 23  1  0
 22 24  1  0
 26 27  1  0
 27 29  1  0
 29 32  2  0
 30 31  2  0
 30 33  1  0
 31 34  1  0
 33 36  1  0
M  END
>  <PUBCHEM_COMPOUND_CID>  (23) 
2628

>  <PUBCHEM_COMPOUND_CANONICALIZED>  (23) 
1

>  <PUBCHEM_CACTVS_COMPLEXITY>  (23) 
1030

>  <PUBCHEM_CACTVS_HBOND_ACCEPTOR>  (23) 
15

>  <PUBCHEM_CACTVS_HBOND_DONOR>  (23) 
4

>  <PUBCHEM_CACTVS_ROTATABLE_BOND>  (23) 
10

>  <PUBCHEM_CACTVS_SUBSKEYS>  (23) 
AAADceB7uABwAAAAAAAAAAAAAABYAWLAAAAgAAAAAAAQAAAB4AAAHgQUCAAADCjF1gajmRPYEgisAwXyfAAA8alhCjkAGJW4YFiCZJpgxCEUUAAkVgP4WSKsAAAAAAAAAAAAAAAAAAAAAAAAAAAAAAAAAA==

>  <PUBCHEM_IUPAC_OPENEYE_NAME>  (23) 
7-[[2-(2-aminothiazol-4-yl)-2-methoxyimino-acetyl]amino]-3-[[5-(carboxymethyl)-4-methyl-thiazol-2-yl]sulfanylmethyl]-8-oxo-5-thia-1-azabicyclo[4.2.0]oct-2-ene-2-carboxylic acid

>  <PUBCHEM_IUPAC_CAS_NAME>  (23) 
7-[[2-(2-amino-4-thiazolyl)-2-methoxyimino-1-oxoethyl]amino]-3-[[[5-(carboxymethyl)-4-methyl-2-thiazolyl]thio]methyl]-8-oxo-5-thia-1-azabicyclo[4.2.0]oct-2-ene-2-carboxylic acid

>  <PUBCHEM_IUPAC_NAME_MARKUP>  (23) 
7-[[2-(2-amino-1,3-thiazol-4-yl)-2-methoxyiminoacetyl]amino]-3-[[5-(carboxymethyl)-4-methyl-1,3-thiazol-2-yl]sulfanylmethyl]-8-oxo-5-thia-1-azabicyclo[4.2.0]oct-2-ene-2-carboxylic acid

>  <PUBCHEM_IUPAC_NAME>  (23) 
7-[[2-(2-amino-1,3-thiazol-4-yl)-2-methoxyiminoacetyl]amino]-3-[[5-(carboxymethyl)-4-methyl-1,3-thiazol-2-yl]sulfanylmethyl]-8-oxo-5-thia-1-azabicyclo[4.2.0]oct-2-ene-2-carboxylic acid

>  <PUBCHEM_IUPAC_SYSTEMATIC_NAME>  (23) 
7-[[2-(2-azanyl-1,3-thiazol-4-yl)-2-methoxyimino-ethanoyl]amino]-3-[[5-(2-hydroxy-2-oxoethyl)-4-methyl-1,3-thiazol-2-yl]sulfanylmethyl]-8-oxidanylidene-5-thia-1-azabicyclo[4.2.0]oct-2-ene-2-carboxylic acid

>  <PUBCHEM_IUPAC_TRADITIONAL_NAME>  (23) 
7-[[2-(2-aminothiazol-4-yl)-2-methyloximino-acetyl]amino]-3-[[[5-(carboxymethyl)-4-methyl-thiazol-2-yl]thio]methyl]-8-keto-5-thia-1-azabicyclo[4.2.0]oct-2-ene-2-carboxylic acid

>  <PUBCHEM_IUPAC_INCHI>  (23) 
InChI=1S/C20H20N6O7S4/c1-7-10(3-11(27)28)37-20(22-7)36-5-8-4-34-17-13(16(30)26(17)14(8)18(31)32)24-15(29)12(25-33-2)9-6-35-19(21)23-9/h6,13,17H,3-5H2,1-2H3,(H2,21,23)(H,24,29)(H,27,28)(H,31,32)

>  <PUBCHEM_IUPAC_INCHIKEY>  (23) 
XDZKBRJLTGRPSS-UHFFFAOYSA-N

>  <PUBCHEM_XLOGP3>  (23) 
0.2

>  <PUBCHEM_EXACT_MASS>  (23) 
584.02763169

>  <PUBCHEM_MOLECULAR_FORMULA>  (23) 
C20H20N6O7S4

>  <PUBCHEM_MOLECULAR_WEIGHT>  (23) 
584.7

>  <PUBCHEM_SMILES>  (23) 
CC1=C(SC(=N1)SCC2=C(N3C(C(C3=O)NC(=O)C(=NOC)C4=CSC(=N4)N)SC2)C(=O)O)CC(=O)O

>  <PUBCHEM_CONNECTIVITY_SMILES>  (23) 
CC1=C(SC(=N1)SCC2=C(N3C(C(C3=O)NC(=O)C(=NOC)C4=CSC(=N4)N)SC2)C(=O)O)CC(=O)O

>  <PUBCHEM_CACTVS_TPSA>  (23) 
304

>  <PUBCHEM_MONOISOTOPIC_WEIGHT>  (23) 
584.02763169

>  <PUBCHEM_TOTAL_CHARGE>  (23) 
0

>  <PUBCHEM_HEAVY_ATOM_COUNT>  (23) 
37

>  <PUBCHEM_ATOM_DEF_STEREO_COUNT>  (23) 
0

>  <PUBCHEM_ATOM_UDEF_STEREO_COUNT>  (23) 
2

>  <PUBCHEM_BOND_DEF_STEREO_COUNT>  (23) 
0

>  <PUBCHEM_BOND_UDEF_STEREO_COUNT>  (23) 
1

>  <PUBCHEM_ISOTOPIC_ATOM_COUNT>  (23) 
0

>  <PUBCHEM_COMPONENT_COUNT>  (23) 
1

>  <PUBCHEM_CACTVS_TAUTO_COUNT>  (23) 
-1

>  <PUBCHEM_COORDINATE_TYPE>  (23) 
1
5
255

>  <PUBCHEM_BONDANNOTATIONS>  (23) 
14  27  1
15  28  8
15  31  8
16  29  8
16  35  8
18  38  3
19  39  3
29  32  8
3  28  8
3  30  8
30  31  8
4  32  8
4  35  8

$$$$
2727
     RDKit          2D

 17 17  0  0  0  0  0  0  0  0999 V2000
    3.0000   -4.2500    0.0000 Cl  0  0  0  0  0  0  0  0  0  0  0  0
    3.0000   -0.2500    0.0000 S   0  0  0  0  0  0  0  0  0  0  0  0
    4.0000   -0.2500    0.0000 O   0  0  0  0  0  0  0  0  0  0  0  0
    2.0000   -0.2500    0.0000 O   0  0  0  0  0  0  0  0  0  0  0  0
    4.7321    0.7500    0.0000 O   0  0  0  0  0  0  0  0  0  0  0  0
    3.0000    0.7500    0.0000 N   0  0  0  0  0  0  0  0  0  0  0  0
    3.8660    2.2500    0.0000 N   0  0  0  0  0  0  0  0  0  0  0  0
    4.7321    2.7500    0.0000 C   0  0  0  0  0  0  0  0  0  0  0  0
    3.0000   -1.2500    0.0000 C   0  0  0  0  0  0  0  0  0  0  0  0
    4.7321    3.7500    0.0000 C   0  0  0  0  0  0  0  0  0  0  0  0
    3.8660    1.2500    0.0000 C   0  0  0  0  0  0  0  0  0  0  0  0
    2.1340   -1.7500    0.0000 C   0  0  0  0  0  0  0  0  0  0  0  0
    3.8660   -1.7500    0.0000 C   0  0  0  0  0  0  0  0  0  0  0  0
    5.5981    4.2500    0.0000 C   0  0  0  0  0  0  0  0  0  0  0  0
    2.1340   -2.7500    0.0000 C   0  0  0  0  0  0  0  0  0  0  0  0
    3.8660   -2.7500    0.0000 C   0  0  0  0  0  0  0  0  0  0  0  0
    3.0000   -3.2500    0.0000 C   0  0  0  0  0  0  0  0  0  0  0  0
  1 17  1  0
  2  3  2  0
  2  4  2  0
  2  6  1  0
  2  9  1  0
  5 11  2  0
  6 11  1  0
  7  8  1  0
  7 11  1  0
  8 10  1  0
  9 12  2  0
  9 13  1  0
 10 14  1  0
 12 15  1  0
 13 16  2  0
 15 17  2  0
 16 17  1  0
M  END
>  <PUBCHEM_COMPOUND_CID>  (24) 
2727

>  <PUBCHEM_COMPOUND_CANONICALIZED>  (24) 
1

>  <PUBCHEM_CACTVS_COMPLEXITY>  (24) 
345

>  <PUBCHEM_CACTVS_HBOND_ACCEPTOR>  (24) 
3

>  <PUBCHEM_CACTVS_HBOND_DONOR>  (24) 
2

>  <PUBCHEM_CACTVS_ROTATABLE_BOND>  (24) 
4

>  <PUBCHEM_CACTVS_SUBSKEYS>  (24) 
AAADccBzMABEAAAAAAAAAAAAAAAAAAAAAAAwAAAAAAAAAAABAAAAHgYQQAAACALBUCQzAYLAAAKIACBCEHBCABAgBQAIiJgIAoiIICKBExCEIAAglgIIiAcAAAAAAAIAAAAAAAAABAAAAAAAAAAAAAAAAA==

>  <PUBCHEM_IUPAC_OPENEYE_NAME>  (24) 
1-(4-chlorophenyl)sulfonyl-3-propyl-urea

>  <PUBCHEM_IUPAC_CAS_NAME>  (24) 
1-(4-chlorophenyl)sulfonyl-3-propylurea

>  <PUBCHEM_IUPAC_NAME_MARKUP>  (24) 
1-(4-chlorophenyl)sulfonyl-3-propylurea

>  <PUBCHEM_IUPAC_NAME>  (24) 
1-(4-chlorophenyl)sulfonyl-3-propylurea

>  <PUBCHEM_IUPAC_SYSTEMATIC_NAME>  (24) 
1-(4-chlorophenyl)sulfonyl-3-propyl-urea

>  <PUBCHEM_IUPAC_TRADITIONAL_NAME>  (24) 
1-(4-chlorophenyl)sulfonyl-3-propyl-urea

>  <PUBCHEM_IUPAC_INCHI>  (24) 
InChI=1S/C10H13ClN2O3S/c1-2-7-12-10(14)13-17(15,16)9-5-3-8(11)4-6-9/h3-6H,2,7H2,1H3,(H2,12,13,14)

>  <PUBCHEM_IUPAC_INCHIKEY>  (24) 
RKWGIWYCVPQPMF-UHFFFAOYSA-N

>  <PUBCHEM_XLOGP3>  (24) 
2.3

>  <PUBCHEM_EXACT_MASS>  (24) 
276.0335411

>  <PUBCHEM_MOLECULAR_FORMULA>  (24) 
C10H13ClN2O3S

>  <PUBCHEM_MOLECULAR_WEIGHT>  (24) 
276.74

>  <PUBCHEM_SMILES>  (24) 
CCCNC(=O)NS(=O)(=O)C1=CC=C(C=C1)Cl

>  <PUBCHEM_CONNECTIVITY_SMILES>  (24) 
CCCNC(=O)NS(=O)(=O)C1=CC=C(C=C1)Cl

>  <PUBCHEM_CACTVS_TPSA>  (24) 
83.7

>  <PUBCHEM_MONOISOTOPIC_WEIGHT>  (24) 
276.0335411

>  <PUBCHEM_TOTAL_CHARGE>  (24) 
0

>  <PUBCHEM_HEAVY_ATOM_COUNT>  (24) 
17

>  <PUBCHEM_ATOM_DEF_STEREO_COUNT>  (24) 
0

>  <PUBCHEM_ATOM_UDEF_STEREO_COUNT>  (24) 
0

>  <PUBCHEM_BOND_DEF_STEREO_COUNT>  (24) 
0

>  <PUBCHEM_BOND_UDEF_STEREO_COUNT>  (24) 
0

>  <PUBCHEM_ISOTOPIC_ATOM_COUNT>  (24) 
0

>  <PUBCHEM_COMPONENT_COUNT>  (24) 
1

>  <PUBCHEM_CACTVS_TAUTO_COUNT>  (24) 
-1

>  <PUBCHEM_COORDINATE_TYPE>  (24) 
1
5
255

>  <PUBCHEM_BONDANNOTATIONS>  (24) 
12  15  8
13  16  8
15  17  8
16  17  8
9  12  8
9  13  8

$$$$
2761
     RDKit          2D

 28 31  0  0  0  0  0  0  0  0999 V2000
    4.5981   -1.7500    0.0000 N   0  0  0  0  0  0  0  0  0  0  0  0
    4.5981    0.2500    0.0000 N   0  0  0  0  0  0  0  0  0  0  0  0
    3.7321   -1.2500    0.0000 C   0  0  0  0  0  0  0  0  0  0  0  0
    5.4641   -1.2500    0.0000 C   0  0  0  0  0  0  0  0  0  0  0  0
    4.5981   -2.7500    0.0000 C   0  0  0  0  0  0  0  0  0  0  0  0
    3.7321   -0.2500    0.0000 C   0  0  0  0  0  0  0  0  0  0  0  0
    5.4641   -0.2500    0.0000 C   0  0  0  0  0  0  0  0  0  0  0  0
    4.5981    1.2500    0.0000 C   0  0  0  0  0  0  0  0  0  0  0  0
    3.7321   -3.2500    0.0000 C   0  0  0  0  0  0  0  0  0  0  0  0
    5.4641   -3.2500    0.0000 C   0  0  0  0  0  0  0  0  0  0  0  0
    5.4641    1.7500    0.0000 C   0  0  0  0  0  0  0  0  0  0  0  0
    2.8660   -2.7500    0.0000 C   0  0  0  0  0  0  0  0  0  0  0  0
    6.3301   -2.7500    0.0000 C   0  0  0  0  0  0  0  0  0  0  0  0
    3.7321   -4.2500    0.0000 C   0  0  0  0  0  0  0  0  0  0  0  0
    5.4641   -4.2500    0.0000 C   0  0  0  0  0  0  0  0  0  0  0  0
    2.0000   -3.2500    0.0000 C   0  0  0  0  0  0  0  0  0  0  0  0
    7.1962   -3.2500    0.0000 C   0  0  0  0  0  0  0  0  0  0  0  0
    2.8660   -4.7500    0.0000 C   0  0  0  0  0  0  0  0  0  0  0  0
    6.3301   -4.7500    0.0000 C   0  0  0  0  0  0  0  0  0  0  0  0
    5.4641    2.7500    0.0000 C   0  0  0  0  0  0  0  0  0  0  0  0
    2.0000   -4.2500    0.0000 C   0  0  0  0  0  0  0  0  0  0  0  0
    7.1962   -4.2500    0.0000 C   0  0  0  0  0  0  0  0  0  0  0  0
    6.3301    3.2500    0.0000 C   0  0  0  0  0  0  0  0  0  0  0  0
    7.1962    2.7500    0.0000 C   0  0  0  0  0  0  0  0  0  0  0  0
    6.3301    4.2500    0.0000 C   0  0  0  0  0  0  0  0  0  0  0  0
    8.0622    3.2500    0.0000 C   0  0  0  0  0  0  0  0  0  0  0  0
    7.1962    4.7500    0.0000 C   0  0  0  0  0  0  0  0  0  0  0  0
    8.0622    4.2500    0.0000 C   0  0  0  0  0  0  0  0  0  0  0  0
  1  3  1  0
  1  4  1  0
  1  5  1  0
  2  6  1  0
  2  7  1  0
  2  8  1  0
  3  6  1  0
  4  7  1  0
  5  9  1  0
  5 10  1  0
  8 11  1  0
  9 12  2  0
  9 14  1  0
 10 13  2  0
 10 15  1  0
 11 20  2  3
 12 16  1  0
 13 17  1  0
 14 18  2  0
 15 19  2  0
 16 21  2  0
 17 22  2  0
 18 21  1  0
 19 22  1  0
 20 23  1  0
 23 24  2  0
 23 25  1  0
 24 26  1  0
 25 27  2  0
 26 28  2  0
 27 28  1  0
M  END
>  <PUBCHEM_COMPOUND_CID>  (25) 
2761

>  <PUBCHEM_COMPOUND_CANONICALIZED>  (25) 
1

>  <PUBCHEM_CACTVS_COMPLEXITY>  (25) 
429

>  <PUBCHEM_CACTVS_HBOND_ACCEPTOR>  (25) 
2

>  <PUBCHEM_CACTVS_HBOND_DONOR>  (25) 
0

>  <PUBCHEM_CACTVS_ROTATABLE_BOND>  (25) 
6

>  <PUBCHEM_CACTVS_SUBSKEYS>  (25) 
AAADceB7AAAAAAAAAAAAAAAAAAAAAAAAAAA8YMEAAAAAAAABUAAAHAAAAAAADCjBGAQwAIMAAACAAiBCAACCAAAgAAAIiAAIBIgIYCKAkRGUIAhggACIiAcQgMAOAAAAAAAAAAAAAAAAAAAAAAAAAAAAAA==

>  <PUBCHEM_IUPAC_OPENEYE_NAME>  (25) 
1-benzhydryl-4-cinnamyl-piperazine

>  <PUBCHEM_IUPAC_CAS_NAME>  (25) 
1-(diphenylmethyl)-4-(3-phenylprop-2-enyl)piperazine

>  <PUBCHEM_IUPAC_NAME_MARKUP>  (25) 
1-benzhydryl-4-(3-phenylprop-2-enyl)piperazine

>  <PUBCHEM_IUPAC_NAME>  (25) 
1-benzhydryl-4-(3-phenylprop-2-enyl)piperazine

>  <PUBCHEM_IUPAC_SYSTEMATIC_NAME>  (25) 
1-(diphenylmethyl)-4-(3-phenylprop-2-enyl)piperazine

>  <PUBCHEM_IUPAC_TRADITIONAL_NAME>  (25) 
1-benzhydryl-4-cinnamyl-piperazine

>  <PUBCHEM_IUPAC_INCHI>  (25) 
InChI=1S/C26H28N2/c1-4-11-23(12-5-1)13-10-18-27-19-21-28(22-20-27)26(24-14-6-2-7-15-24)25-16-8-3-9-17-25/h1-17,26H,18-22H2

>  <PUBCHEM_IUPAC_INCHIKEY>  (25) 
DERZBLKQOCDDDZ-UHFFFAOYSA-N

>  <PUBCHEM_XLOGP3>  (25) 
5.8

>  <PUBCHEM_EXACT_MASS>  (25) 
368.225248902

>  <PUBCHEM_MOLECULAR_FORMULA>  (25) 
C26H28N2

>  <PUBCHEM_MOLECULAR_WEIGHT>  (25) 
368.5

>  <PUBCHEM_SMILES>  (25) 
C1CN(CCN1CC=CC2=CC=CC=C2)C(C3=CC=CC=C3)C4=CC=CC=C4

>  <PUBCHEM_CONNECTIVITY_SMILES>  (25) 
C1CN(CCN1CC=CC2=CC=CC=C2)C(C3=CC=CC=C3)C4=CC=CC=C4

>  <PUBCHEM_CACTVS_TPSA>  (25) 
6.5

>  <PUBCHEM_MONOISOTOPIC_WEIGHT>  (25) 
368.225248902

>  <PUBCHEM_TOTAL_CHARGE>  (25) 
0

>  <PUBCHEM_HEAVY_ATOM_COUNT>  (25) 
28

>  <PUBCHEM_ATOM_DEF_STEREO_COUNT>  (25) 
0

>  <PUBCHEM_ATOM_UDEF_STEREO_COUNT>  (25) 
0

>  <PUBCHEM_BOND_DEF_STEREO_COUNT>  (25) 
0

>  <PUBCHEM_BOND_UDEF_STEREO_COUNT>  (25) 
1

>  <PUBCHEM_ISOTOPIC_ATOM_COUNT>  (25) 
0

>  <PUBCHEM_COMPONENT_COUNT>  (25) 
1

>  <PUBCHEM_CACTVS_TAUTO_COUNT>  (25) 
-1

>  <PUBCHEM_COORDINATE_TYPE>  (25) 
1
5
255

>  <PUBCHEM_BONDANNOTATIONS>  (25) 
10  13  8
10  15  8
11  20  1
12  16  8
13  17  8
14  18  8
15  19  8
16  21  8
17  22  8
18  21  8
19  22  8
23  24  8
23  25  8
24  26  8
25  27  8
26  28  8
27  28  8
9  12  8
9  14  8

$$$$
2826
     RDKit          2D

 22 24  0  0  1  0  0  0  0  0999 V2000
    5.5851   -0.3888    0.0000 O   0  0  0  0  0  0  0  0  0  0  0  0
    8.2717   -2.0749    0.0000 O   0  0  0  0  0  0  0  0  0  0  0  0
    6.5407   -2.1353    0.0000 O   0  0  0  0  0  0  0  0  0  0  0  0
    4.9927    1.2388    0.0000 O   0  0  0  0  0  0  0  0  0  0  0  0
    8.0971    2.2082    0.0000 N   0  0  0  0  0  0  0  0  0  0  0  0
    8.5749    0.2597    0.0000 C   0  0  0  0  0  0  0  0  0  0  0  0
    8.8337    1.2256    0.0000 C   0  0  0  0  0  0  0  0  0  0  0  0
    7.3539   -0.6060    0.0000 C   0  0  0  0  0  0  0  0  0  0  0  0
    9.9738   -0.2491    0.0000 C   0  0  0  0  0  0  0  0  0  0  0  0
   10.2326    0.7168    0.0000 C   0  0  0  0  0  0  0  0  0  0  0  0
    6.8005    0.9145    0.0000 C   0  0  0  0  0  0  0  0  0  0  0  0
    6.5248   -0.0468    0.0000 C   0  0  0  0  0  0  0  0  0  0  0  0
    7.5971    3.0742    0.0000 C   0  0  0  0  0  0  0  0  0  0  0  0
    7.3888   -1.6054    0.0000 C   0  0  0  0  0  0  0  0  0  0  0  0
    4.8191    0.2540    0.0000 C   0  0  0  0  0  0  0  0  0  0  0  0
    8.3066   -3.0742    0.0000 C   0  0  0  0  0  0  0  0  0  0  0  0
    3.8794   -0.0880    0.0000 C   0  0  0  0  0  0  0  0  0  0  0  0
    3.7057   -1.0729    0.0000 C   0  0  0  0  0  0  0  0  0  0  0  0
    3.1133    0.5547    0.0000 C   0  0  0  0  0  0  0  0  0  0  0  0
    2.7660   -1.4149    0.0000 C   0  0  0  0  0  0  0  0  0  0  0  0
    2.1737    0.2127    0.0000 C   0  0  0  0  0  0  0  0  0  0  0  0
    2.0000   -0.7721    0.0000 C   0  0  0  0  0  0  0  0  0  0  0  0
  1 12  1  0
  1 15  1  0
  2 14  1  0
  2 16  1  0
  3 14  2  0
  4 15  2  0
  5  6  1  0
  5  7  1  0
  5 13  1  0
  6  8  1  0
  6  9  1  0
  7 10  1  0
  7 11  1  0
  8 12  1  0
  8 14  1  0
  9 10  1  0
 11 12  1  0
 15 17  1  0
 17 18  2  0
 17 19  1  0
 18 20  1  0
 19 21  2  0
 20 22  2  0
 21 22  1  0
M  END
>  <PUBCHEM_COMPOUND_CID>  (26) 
2826

>  <PUBCHEM_COMPOUND_CANONICALIZED>  (26) 
1

>  <PUBCHEM_CACTVS_COMPLEXITY>  (26) 
432

>  <PUBCHEM_CACTVS_HBOND_ACCEPTOR>  (26) 
5

>  <PUBCHEM_CACTVS_HBOND_DONOR>  (26) 
0

>  <PUBCHEM_CACTVS_ROTATABLE_BOND>  (26) 
5

>  <PUBCHEM_CACTVS_SUBSKEYS>  (26) 
AAADceB6OAAAAAAAAAAAAAAAAAAAAWAAAAA8QAAABgAAAAABAAAAHgAAAAAADTzhmAYyCIMABACIAiDSCAACAAAkAAAIiAEICMgIJj6AtRiGMQAn4AGIqYeY2eOeAAAAAAAAAAAAAAAAAAAAAAAAAAAAAA==

>  <PUBCHEM_IUPAC_OPENEYE_NAME>  (26) 
methyl 3-benzoyloxy-8-methyl-8-azabicyclo[3.2.1]octane-2-carboxylate

>  <PUBCHEM_IUPAC_CAS_NAME>  (26) 
3-benzoyloxy-8-methyl-8-azabicyclo[3.2.1]octane-2-carboxylic acid methyl ester

>  <PUBCHEM_IUPAC_NAME_MARKUP>  (26) 
methyl 3-benzoyloxy-8-methyl-8-azabicyclo[3.2.1]octane-2-carboxylate

>  <PUBCHEM_IUPAC_NAME>  (26) 
methyl 3-benzoyloxy-8-methyl-8-azabicyclo[3.2.1]octane-2-carboxylate

>  <PUBCHEM_IUPAC_SYSTEMATIC_NAME>  (26) 
methyl 8-methyl-3-(phenylcarbonyloxy)-8-azabicyclo[3.2.1]octane-2-carboxylate

>  <PUBCHEM_IUPAC_TRADITIONAL_NAME>  (26) 
3-benzoyloxy-8-methyl-8-azabicyclo[3.2.1]octane-2-carboxylic acid methyl ester

>  <PUBCHEM_IUPAC_INCHI>  (26) 
InChI=1S/C17H21NO4/c1-18-12-8-9-13(18)15(17(20)21-2)14(10-12)22-16(19)11-6-4-3-5-7-11/h3-7,12-15H,8-10H2,1-2H3

>  <PUBCHEM_IUPAC_INCHIKEY>  (26) 
ZPUCINDJVBIVPJ-UHFFFAOYSA-N

>  <PUBCHEM_XLOGP3>  (26) 
2.3

>  <PUBCHEM_EXACT_MASS>  (26) 
303.14705815

>  <PUBCHEM_MOLECULAR_FORMULA>  (26) 
C17H21NO4

>  <PUBCHEM_MOLECULAR_WEIGHT>  (26) 
303.35

>  <PUBCHEM_SMILES>  (26) 
CN1C2CCC1C(C(C2)OC(=O)C3=CC=CC=C3)C(=O)OC

>  <PUBCHEM_CONNECTIVITY_SMILES>  (26) 
CN1C2CCC1C(C(C2)OC(=O)C3=CC=CC=C3)C(=O)OC

>  <PUBCHEM_CACTVS_TPSA>  (26) 
55.8

>  <PUBCHEM_MONOISOTOPIC_WEIGHT>  (26) 
303.14705815

>  <PUBCHEM_TOTAL_CHARGE>  (26) 
0

>  <PUBCHEM_HEAVY_ATOM_COUNT>  (26) 
22

>  <PUBCHEM_ATOM_DEF_STEREO_COUNT>  (26) 
0

>  <PUBCHEM_ATOM_UDEF_STEREO_COUNT>  (26) 
4

>  <PUBCHEM_BOND_DEF_STEREO_COUNT>  (26) 
0

>  <PUBCHEM_BOND_UDEF_STEREO_COUNT>  (26) 
0

>  <PUBCHEM_ISOTOPIC_ATOM_COUNT>  (26) 
0

>  <PUBCHEM_COMPONENT_COUNT>  (26) 
1

>  <PUBCHEM_CACTVS_TAUTO_COUNT>  (26) 
-1

>  <PUBCHEM_COORDINATE_TYPE>  (26) 
1
5
255

>  <PUBCHEM_BONDANNOTATIONS>  (26) 
12  32  3
17  18  8
17  19  8
18  20  8
19  21  8
20  22  8
21  22  8
6  23  3
7  24  3
8  25  3

$$$$
2925
     RDKit          2D

 37 41  0  0  1  0  0  0  0  0999 V2000
    5.5996    3.4455    0.0000 O   0  0  0  0  0  0  0  0  0  0  0  0
    7.4319   -0.3138    0.0000 O   0  0  0  0  0  0  0  0  0  0  0  0
    6.7279   -0.7062    0.0000 O   0  0  0  0  0  0  0  0  0  0  0  0
    4.7358   -3.0176    0.0000 O   0  0  0  0  0  0  0  0  0  0  0  0
    6.9836   -1.9868    0.0000 O   0  0  0  0  0  0  0  0  0  0  0  0
    3.0000   -2.9119    0.0000 O   0  0  0  0  0  0  0  0  0  0  0  0
    8.2238    0.4301    0.0000 N   0  0  0  0  0  0  0  0  0  0  0  0
    6.4659    2.9450    0.0000 C   0  0  0  0  0  0  0  0  0  0  0  0
    6.4659    0.9450    0.0000 C   0  0  0  0  0  0  0  0  0  0  0  0
    5.5999    2.4450    0.0000 C   0  0  0  0  0  0  0  0  0  0  0  0
    7.3320    1.4450    0.0000 C   0  0  0  0  0  0  0  0  0  0  0  0
    7.3320    2.4450    0.0000 C   0  0  0  0  0  0  0  0  0  0  0  0
    5.5999    1.4450    0.0000 C   0  0  0  0  0  0  0  0  0  0  0  0
    8.3038    1.2358    0.0000 C   0  0  0  0  0  0  0  0  0  0  0  0
    6.4659   -0.0550    0.0000 C   0  0  0  0  0  0  0  0  0  0  0  0
    7.1330    0.2080    0.0000 C   0  0  0  0  0  0  0  0  0  0  0  0
    7.3320    3.4450    0.0000 C   0  0  0  0  0  0  0  0  0  0  0  0
    8.1980    2.9450    0.0000 C   0  0  0  0  0  0  0  0  0  0  0  0
    4.7339    0.9450    0.0000 C   0  0  0  0  0  0  0  0  0  0  0  0
    9.1707    1.7343    0.0000 C   0  0  0  0  0  0  0  0  0  0  0  0
    5.9659   -0.9210    0.0000 C   0  0  0  0  0  0  0  0  0  0  0  0
    4.4659   -0.0550    0.0000 C   0  0  0  0  0  0  0  0  0  0  0  0
   10.0358    1.2328    0.0000 C   0  0  0  0  0  0  0  0  0  0  0  0
    5.0000   -1.1798    0.0000 C   0  0  0  0  0  0  0  0  0  0  0  0
    3.5000   -0.3138    0.0000 C   0  0  0  0  0  0  0  0  0  0  0  0
    7.6907   -1.2797    0.0000 C   0  0  0  0  0  0  0  0  0  0  0  0
    4.5000   -2.0458    0.0000 C   0  0  0  0  0  0  0  0  0  0  0  0
    3.0000   -1.1798    0.0000 C   0  0  0  0  0  0  0  0  0  0  0  0
   10.9027    1.7313    0.0000 C   0  0  0  0  0  0  0  0  0  0  0  0
   10.0341    0.2328    0.0000 C   0  0  0  0  0  0  0  0  0  0  0  0
    3.5000   -2.0458    0.0000 C   0  0  0  0  0  0  0  0  0  0  0  0
    8.6566   -1.5385    0.0000 C   0  0  0  0  0  0  0  0  0  0  0  0
    5.4161   -2.4468    0.0000 C   0  0  0  0  0  0  0  0  0  0  0  0
    2.0000   -1.1798    0.0000 C   0  0  0  0  0  0  0  0  0  0  0  0
   11.7679    1.2299    0.0000 C   0  0  0  0  0  0  0  0  0  0  0  0
   10.8992   -0.2687    0.0000 C   0  0  0  0  0  0  0  0  0  0  0  0
   11.7661    0.2298    0.0000 C   0  0  0  0  0  0  0  0  0  0  0  0
  1  8  1  0
  1 10  1  0
  2 15  1  0
  2 26  1  0
  3 16  2  0
  4 27  1  0
  5 26  2  0
  6 31  2  0
  7 14  1  0
  7 16  1  0
  8 10  1  0
  8 12  1  0
  8 17  1  0
  9 11  1  0
  9 13  1  0
  9 15  1  0
  9 16  1  0
 10 13  1  0
 11 12  1  0
 11 14  1  0
 12 18  1  0
 13 19  1  0
 14 20  1  0
 15 21  1  0
 19 22  2  3
 20 23  1  0
 21 24  2  3
 22 25  1  0
 23 29  2  0
 23 30  1  0
 24 27  1  0
 25 28  1  0
 26 32  1  0
 27 31  1  0
 27 33  1  0
 28 31  1  0
 28 34  1  0
 29 35  1  0
 30 36  2  0
 35 37  2  0
 36 37  1  0
M  END
>  <PUBCHEM_COMPOUND_CID>  (27) 
2925

>  <PUBCHEM_COMPOUND_CANONICALIZED>  (27) 
1

>  <PUBCHEM_CACTVS_COMPLEXITY>  (27) 
1020

>  <PUBCHEM_CACTVS_HBOND_ACCEPTOR>  (27) 
6

>  <PUBCHEM_CACTVS_HBOND_DONOR>  (27) 
2

>  <PUBCHEM_CACTVS_ROTATABLE_BOND>  (27) 
4

>  <PUBCHEM_CACTVS_SUBSKEYS>  (27) 
AAADcfB6OAAAAAAAAAAAAAAAEgAAAWAAAAAwYAAABIAAAFgBAAAAHgAQCAAAD3zhmAYyCILABgCIAqHSGAICAAAgAAAIiIFIAIgIJDaAsRGGcAAm9gCIuAf+/P/PgAAAAAAAAADAAAYAADAAAAAAAAAAAA==

>  <PUBCHEM_IUPAC_OPENEYE_NAME>  (27) 
(17-benzyl-5-hydroxy-5,7,14,15-tetramethyl-6,19-dioxo-13-oxa-18-azatetracyclo[9.8.0.01,16.012,14]nonadeca-3,9-dien-2-yl) acetate

>  <PUBCHEM_IUPAC_CAS_NAME>  (27) 
acetic acid [5-hydroxy-5,7,14,15-tetramethyl-6,19-dioxo-17-(phenylmethyl)-13-oxa-18-azatetracyclo[9.8.0.01,16.012,14]nonadeca-3,9-dien-2-yl] ester

>  <PUBCHEM_IUPAC_NAME_MARKUP>  (27) 
(17-benzyl-5-hydroxy-5,7,14,15-tetramethyl-6,19-dioxo-13-oxa-18-azatetracyclo[9.8.0.0<SUP>1,16</SUP>.0<SUP>12,14</SUP>]nonadeca-3,9-dien-2-yl) acetate

>  <PUBCHEM_IUPAC_NAME>  (27) 
(17-benzyl-5-hydroxy-5,7,14,15-tetramethyl-6,19-dioxo-13-oxa-18-azatetracyclo[9.8.0.01,16.012,14]nonadeca-3,9-dien-2-yl) acetate

>  <PUBCHEM_IUPAC_SYSTEMATIC_NAME>  (27) 
[5,7,14,15-tetramethyl-5-oxidanyl-6,19-bis(oxidanylidene)-17-(phenylmethyl)-13-oxa-18-azatetracyclo[9.8.0.01,16.012,14]nonadeca-3,9-dien-2-yl] ethanoate

>  <PUBCHEM_IUPAC_TRADITIONAL_NAME>  (27) 
acetic acid (17-benzyl-5-hydroxy-6,19-diketo-5,7,14,15-tetramethyl-13-oxa-18-azatetracyclo[9.8.0.01,16.012,14]nonadeca-3,9-dien-2-yl) ester

>  <PUBCHEM_IUPAC_INCHI>  (27) 
InChI=1S/C30H37NO6/c1-17-10-9-13-21-26-29(5,37-26)18(2)24-22(16-20-11-7-6-8-12-20)31-27(34)30(21,24)23(36-19(3)32)14-15-28(4,35)25(17)33/h6-9,11-15,17-18,21-24,26,35H,10,16H2,1-5H3,(H,31,34)

>  <PUBCHEM_IUPAC_INCHIKEY>  (27) 
XHEQULXTQLICFN-UHFFFAOYSA-N

>  <PUBCHEM_XLOGP3_AA>  (27) 
3.3

>  <PUBCHEM_EXACT_MASS>  (27) 
507.26208790

>  <PUBCHEM_MOLECULAR_FORMULA>  (27) 
C30H37NO6

>  <PUBCHEM_MOLECULAR_WEIGHT>  (27) 
507.6

>  <PUBCHEM_SMILES>  (27) 
CC1CC=CC2C3C(O3)(C(C4C2(C(C=CC(C1=O)(C)O)OC(=O)C)C(=O)NC4CC5=CC=CC=C5)C)C

>  <PUBCHEM_CONNECTIVITY_SMILES>  (27) 
CC1CC=CC2C3C(O3)(C(C4C2(C(C=CC(C1=O)(C)O)OC(=O)C)C(=O)NC4CC5=CC=CC=C5)C)C

>  <PUBCHEM_CACTVS_TPSA>  (27) 
105

>  <PUBCHEM_MONOISOTOPIC_WEIGHT>  (27) 
507.26208790

>  <PUBCHEM_TOTAL_CHARGE>  (27) 
0

>  <PUBCHEM_HEAVY_ATOM_COUNT>  (27) 
37

>  <PUBCHEM_ATOM_DEF_STEREO_COUNT>  (27) 
0

>  <PUBCHEM_ATOM_UDEF_STEREO_COUNT>  (27) 
10

>  <PUBCHEM_BOND_DEF_STEREO_COUNT>  (27) 
0

>  <PUBCHEM_BOND_UDEF_STEREO_COUNT>  (27) 
2

>  <PUBCHEM_ISOTOPIC_ATOM_COUNT>  (27) 
0

>  <PUBCHEM_COMPONENT_COUNT>  (27) 
1

>  <PUBCHEM_CACTVS_TAUTO_COUNT>  (27) 
-1

>  <PUBCHEM_COORDINATE_TYPE>  (27) 
1
5
255

>  <PUBCHEM_BONDANNOTATIONS>  (27) 
10  1  3
11  12  3
12  18  3
13  19  3
14  20  3
19  22  1
15  2  3
21  24  1
23  29  8
23  30  8
28  34  3
29  35  8
30  36  8
35  37  8
36  37  8
27  4  3
8  17  3
9  13  3

$$$$
3022
     RDKit          2D

 19 21  0  0  0  0  0  0  0  0999 V2000
    5.2829    0.4568    0.0000 O   0  0  0  0  0  0  0  0  0  0  0  0
    8.3810    1.2750    0.0000 O   0  0  0  0  0  0  0  0  0  0  0  0
    2.1848    1.2750    0.0000 O   0  0  0  0  0  0  0  0  0  0  0  0
    6.7276    1.7911    0.0000 O   0  0  0  0  0  0  0  0  0  0  0  0
    3.8381    1.7911    0.0000 O   0  0  0  0  0  0  0  0  0  0  0  0
    5.7829   -1.0821    0.0000 C   0  0  0  0  0  0  0  0  0  0  0  0
    4.7829   -1.0821    0.0000 C   0  0  0  0  0  0  0  0  0  0  0  0
    6.0919   -0.1310    0.0000 C   0  0  0  0  0  0  0  0  0  0  0  0
    4.4739   -0.1310    0.0000 C   0  0  0  0  0  0  0  0  0  0  0  0
    7.1073    0.1012    0.0000 C   0  0  0  0  0  0  0  0  0  0  0  0
    3.4584    0.1012    0.0000 C   0  0  0  0  0  0  0  0  0  0  0  0
    6.4678   -1.8668    0.0000 C   0  0  0  0  0  0  0  0  0  0  0  0
    4.0979   -1.8668    0.0000 C   0  0  0  0  0  0  0  0  0  0  0  0
    7.8102   -0.6675    0.0000 C   0  0  0  0  0  0  0  0  0  0  0  0
    2.7555   -0.6675    0.0000 C   0  0  0  0  0  0  0  0  0  0  0  0
    7.4883   -1.6581    0.0000 C   0  0  0  0  0  0  0  0  0  0  0  0
    3.0774   -1.6581    0.0000 C   0  0  0  0  0  0  0  0  0  0  0  0
    7.4053    1.0558    0.0000 C   0  0  0  0  0  0  0  0  0  0  0  0
    3.1604    1.0558    0.0000 C   0  0  0  0  0  0  0  0  0  0  0  0
  1  8  1  0
  1  9  1  0
  2 18  1  0
  3 19  1  0
  4 18  2  0
  5 19  2  0
  6  7  1  0
  6  8  2  0
  6 12  1  0
  7  9  2  0
  7 13  1  0
  8 10  1  0
  9 11  1  0
 10 14  2  0
 10 18  1  0
 11 15  2  0
 11 19  1  0
 12 16  2  0
 13 17  2  0
 14 16  1  0
 15 17  1  0
M  END
>  <PUBCHEM_COMPOUND_CID>  (28) 
3022

>  <PUBCHEM_COMPOUND_CANONICALIZED>  (28) 
1

>  <PUBCHEM_CACTVS_COMPLEXITY>  (28) 
357

>  <PUBCHEM_CACTVS_HBOND_ACCEPTOR>  (28) 
5

>  <PUBCHEM_CACTVS_HBOND_DONOR>  (28) 
2

>  <PUBCHEM_CACTVS_ROTATABLE_BOND>  (28) 
2

>  <PUBCHEM_CACTVS_SUBSKEYS>  (28) 
AAADccBwOAAAAAAAAAAAAAAAAAAAASAAAAAwYAAAAAAAAEgB/AAAGgAACAAADASAmAAwDsAABkCIAqDSCAACCAAkIAAIiAEECMgMJzaMNRqCeWCl4BEIuYeIyPCOgAACAAAIAAAAAAQAABAAAAAAAAAAAA==

>  <PUBCHEM_IUPAC_OPENEYE_NAME>  (28) 
dibenzofuran-4,6-dicarboxylic acid

>  <PUBCHEM_IUPAC_CAS_NAME>  (28) 
dibenzofuran-4,6-dicarboxylic acid

>  <PUBCHEM_IUPAC_NAME_MARKUP>  (28) 
dibenzofuran-4,6-dicarboxylic acid

>  <PUBCHEM_IUPAC_NAME>  (28) 
dibenzofuran-4,6-dicarboxylic acid

>  <PUBCHEM_IUPAC_SYSTEMATIC_NAME>  (28) 
dibenzofuran-4,6-dicarboxylic acid

>  <PUBCHEM_IUPAC_TRADITIONAL_NAME>  (28) 
dibenzofuran-4,6-dicarboxylic acid

>  <PUBCHEM_IUPAC_INCHI>  (28) 
InChI=1S/C14H8O5/c15-13(16)9-5-1-3-7-8-4-2-6-10(14(17)18)12(8)19-11(7)9/h1-6H,(H,15,16)(H,17,18)

>  <PUBCHEM_IUPAC_INCHIKEY>  (28) 
HBBGSNOHAGNQRQ-UHFFFAOYSA-N

>  <PUBCHEM_XLOGP3_AA>  (28) 
2.7

>  <PUBCHEM_EXACT_MASS>  (28) 
256.03717335

>  <PUBCHEM_MOLECULAR_FORMULA>  (28) 
C14H8O5

>  <PUBCHEM_MOLECULAR_WEIGHT>  (28) 
256.21

>  <PUBCHEM_SMILES>  (28) 
C1=CC2=C(C(=C1)C(=O)O)OC3=C2C=CC=C3C(=O)O

>  <PUBCHEM_CONNECTIVITY_SMILES>  (28) 
C1=CC2=C(C(=C1)C(=O)O)OC3=C2C=CC=C3C(=O)O

>  <PUBCHEM_CACTVS_TPSA>  (28) 
87.7

>  <PUBCHEM_MONOISOTOPIC_WEIGHT>  (28) 
256.03717335

>  <PUBCHEM_TOTAL_CHARGE>  (28) 
0

>  <PUBCHEM_HEAVY_ATOM_COUNT>  (28) 
19

>  <PUBCHEM_ATOM_DEF_STEREO_COUNT>  (28) 
0

>  <PUBCHEM_ATOM_UDEF_STEREO_COUNT>  (28) 
0

>  <PUBCHEM_BOND_DEF_STEREO_COUNT>  (28) 
0

>  <PUBCHEM_BOND_UDEF_STEREO_COUNT>  (28) 
0

>  <PUBCHEM_ISOTOPIC_ATOM_COUNT>  (28) 
0

>  <PUBCHEM_COMPONENT_COUNT>  (28) 
1

>  <PUBCHEM_CACTVS_TAUTO_COUNT>  (28) 
-1

>  <PUBCHEM_COORDINATE_TYPE>  (28) 
1
5
255

>  <PUBCHEM_BONDANNOTATIONS>  (28) 
1  8  8
1  9  8
10  14  8
11  15  8
12  16  8
13  17  8
14  16  8
15  17  8
6  12  8
6  7  8
6  8  8
7  13  8
7  9  8
8  10  8
9  11  8

$$$$
3024
     RDKit          2D

  3  2  0  0  0  0  0  0  0  0999 V2000
    3.7321    0.2500    0.0000 Br  0  0  0  0  0  0  0  0  0  0  0  0
    2.0000    0.2500    0.0000 Br  0  0  0  0  0  0  0  0  0  0  0  0
    2.8660   -0.2500    0.0000 C   0  0  0  0  0  0  0  0  0  0  0  0
  1  3  1  0
  2  3  1  0
M  END
>  <PUBCHEM_COMPOUND_CID>  (29) 
3024

>  <PUBCHEM_COMPOUND_CANONICALIZED>  (29) 
1

>  <PUBCHEM_CACTVS_COMPLEXITY>  (29) 
2.8

>  <PUBCHEM_CACTVS_HBOND_ACCEPTOR>  (29) 
0

>  <PUBCHEM_CACTVS_HBOND_DONOR>  (29) 
0

>  <PUBCHEM_CACTVS_ROTATABLE_BOND>  (29) 
0

>  <PUBCHEM_CACTVS_SUBSKEYS>  (29) 
AAADcQAAAAAAGAAAAAAAAAAAAAAAAAAAAAAAAAAAAAAAAAAAAAAAEABAAAAAQAAAAAAAAAAAAAAAAAAAAAAAAAAAAAAAAAAAAAAAAAAAAAAAAAAAAAAAAAAAAAAAAAAAAAAAAAAAAAAAAAAAAAAAAAAAAA==

>  <PUBCHEM_IUPAC_OPENEYE_NAME>  (29) 
dibromomethane

>  <PUBCHEM_IUPAC_CAS_NAME>  (29) 
dibromomethane

>  <PUBCHEM_IUPAC_NAME_MARKUP>  (29) 
dibromomethane

>  <PUBCHEM_IUPAC_NAME>  (29) 
dibromomethane

>  <PUBCHEM_IUPAC_SYSTEMATIC_NAME>  (29) 
bis(bromanyl)methane

>  <PUBCHEM_IUPAC_TRADITIONAL_NAME>  (29) 
dibromomethane

>  <PUBCHEM_IUPAC_INCHI>  (29) 
InChI=1S/CH2Br2/c2-1-3/h1H2

>  <PUBCHEM_IUPAC_INCHIKEY>  (29) 
FJBFPHVGVWTDIP-UHFFFAOYSA-N

>  <PUBCHEM_XLOGP3_AA>  (29) 
1.8

>  <PUBCHEM_EXACT_MASS>  (29) 
173.85028

>  <PUBCHEM_MOLECULAR_FORMULA>  (29) 
CH2Br2

>  <PUBCHEM_MOLECULAR_WEIGHT>  (29) 
173.83

>  <PUBCHEM_SMILES>  (29) 
C(Br)Br

>  <PUBCHEM_CONNECTIVITY_SMILES>  (29) 
C(Br)Br

>  <PUBCHEM_CACTVS_TPSA>  (29) 
0

>  <PUBCHEM_MONOISOTOPIC_WEIGHT>  (29) 
171.85233

>  <PUBCHEM_TOTAL_CHARGE>  (29) 
0

>  <PUBCHEM_HEAVY_ATOM_COUNT>  (29) 
3

>  <PUBCHEM_ATOM_DEF_STEREO_COUNT>  (29) 
0

>  <PUBCHEM_ATOM_UDEF_STEREO_COUNT>  (29) 
0

>  <PUBCHEM_BOND_DEF_STEREO_COUNT>  (29) 
0

>  <PUBCHEM_BOND_UDEF_STEREO_COUNT>  (29) 
0

>  <PUBCHEM_ISOTOPIC_ATOM_COUNT>  (29) 
0

>  <PUBCHEM_COMPONENT_COUNT>  (29) 
1

>  <PUBCHEM_CACTVS_TAUTO_COUNT>  (29) 
-1

>  <PUBCHEM_COORDINATE_TYPE>  (29) 
1
5
255

$$$$
3052
     RDKit          2D

 14 14  0  0  0  0  0  0  0  0999 V2000
    5.4641   -1.5000    0.0000 O   0  0  0  0  0  0  0  0  0  0  0  0
    4.5981   -0.0000    0.0000 N   0  0  0  0  0  0  0  0  0  0  0  0
    4.5981    2.0000    0.0000 N   0  0  0  0  0  0  0  0  0  0  0  0
    3.7321   -1.5000    0.0000 N   0  0  0  0  0  0  0  0  0  0  0  0
    5.4641    0.5000    0.0000 C   0  0  0  0  0  0  0  0  0  0  0  0
    3.7321    0.5000    0.0000 C   0  0  0  0  0  0  0  0  0  0  0  0
    5.4641    1.5000    0.0000 C   0  0  0  0  0  0  0  0  0  0  0  0
    3.7321    1.5000    0.0000 C   0  0  0  0  0  0  0  0  0  0  0  0
    4.5981   -1.0000    0.0000 C   0  0  0  0  0  0  0  0  0  0  0  0
    4.5981    3.0000    0.0000 C   0  0  0  0  0  0  0  0  0  0  0  0
    3.7321   -2.5000    0.0000 C   0  0  0  0  0  0  0  0  0  0  0  0
    2.8660   -1.0000    0.0000 C   0  0  0  0  0  0  0  0  0  0  0  0
    2.8660   -3.0000    0.0000 C   0  0  0  0  0  0  0  0  0  0  0  0
    2.0000   -1.5000    0.0000 C   0  0  0  0  0  0  0  0  0  0  0  0
  1  9  2  0
  2  5  1  0
  2  6  1  0
  2  9  1  0
  3  7  1  0
  3  8  1  0
  3 10  1  0
  4  9  1  0
  4 11  1  0
  4 12  1  0
  5  7  1  0
  6  8  1  0
 11 13  1  0
 12 14  1  0
M  END
>  <PUBCHEM_COMPOUND_CID>  (30) 
3052

>  <PUBCHEM_COMPOUND_CANONICALIZED>  (30) 
1

>  <PUBCHEM_CACTVS_COMPLEXITY>  (30) 
184

>  <PUBCHEM_CACTVS_HBOND_ACCEPTOR>  (30) 
2

>  <PUBCHEM_CACTVS_HBOND_DONOR>  (30) 
0

>  <PUBCHEM_CACTVS_ROTATABLE_BOND>  (30) 
2

>  <PUBCHEM_CACTVS_SUBSKEYS>  (30) 
AAADceBzIAAAAAAAAAAAAAAAAAAAAAAAAAAsAAAAAAAAAAAAAAAAHgAAAAAAAADBAAQDAAMAAAAIAAAAEAAAAAAAAAAAAAAIAACAQAAAAAAQAAAIBgKAAAAAAAAAAAAAAAAAAAAAAAAAAAAAAAAAAAAAAA==

>  <PUBCHEM_IUPAC_OPENEYE_NAME>  (30) 
N,N-diethyl-4-methyl-piperazine-1-carboxamide

>  <PUBCHEM_IUPAC_CAS_NAME>  (30) 
N,N-diethyl-4-methyl-1-piperazinecarboxamide

>  <PUBCHEM_IUPAC_NAME_MARKUP>  (30) 
<I>N</I>,<I>N</I>-diethyl-4-methylpiperazine-1-carboxamide

>  <PUBCHEM_IUPAC_NAME>  (30) 
N,N-diethyl-4-methylpiperazine-1-carboxamide

>  <PUBCHEM_IUPAC_SYSTEMATIC_NAME>  (30) 
N,N-diethyl-4-methyl-piperazine-1-carboxamide

>  <PUBCHEM_IUPAC_TRADITIONAL_NAME>  (30) 
N,N-diethyl-4-methyl-piperazine-1-carboxamide

>  <PUBCHEM_IUPAC_INCHI>  (30) 
InChI=1S/C10H21N3O/c1-4-12(5-2)10(14)13-8-6-11(3)7-9-13/h4-9H2,1-3H3

>  <PUBCHEM_IUPAC_INCHIKEY>  (30) 
RCKMWOKWVGPNJF-UHFFFAOYSA-N

>  <PUBCHEM_XLOGP3_AA>  (30) 
0.3

>  <PUBCHEM_EXACT_MASS>  (30) 
199.168462302

>  <PUBCHEM_MOLECULAR_FORMULA>  (30) 
C10H21N3O

>  <PUBCHEM_MOLECULAR_WEIGHT>  (30) 
199.29

>  <PUBCHEM_SMILES>  (30) 
CCN(CC)C(=O)N1CCN(CC1)C

>  <PUBCHEM_CONNECTIVITY_SMILES>  (30) 
CCN(CC)C(=O)N1CCN(CC1)C

>  <PUBCHEM_CACTVS_TPSA>  (30) 
26.8

>  <PUBCHEM_MONOISOTOPIC_WEIGHT>  (30) 
199.168462302

>  <PUBCHEM_TOTAL_CHARGE>  (30) 
0

>  <PUBCHEM_HEAVY_ATOM_COUNT>  (30) 
14

>  <PUBCHEM_ATOM_DEF_STEREO_COUNT>  (30) 
0

>  <PUBCHEM_ATOM_UDEF_STEREO_COUNT>  (30) 
0

>  <PUBCHEM_BOND_DEF_STEREO_COUNT>  (30) 
0

>  <PUBCHEM_BOND_UDEF_STEREO_COUNT>  (30) 
0

>  <PUBCHEM_ISOTOPIC_ATOM_COUNT>  (30) 
0

>  <PUBCHEM_COMPONENT_COUNT>  (30) 
1

>  <PUBCHEM_CACTVS_TAUTO_COUNT>  (30) 
-1

>  <PUBCHEM_COORDINATE_TYPE>  (30) 
1
5
255

$$$$
3123
     RDKit          2D

 15 14  0  0  1  0  0  0  0  0999 V2000
    3.4030   -0.4050    0.0000 P   0  0  0  0  0  0  0  0  0  0  0  0
    2.5369   -0.9050    0.0000 O   0  0  0  0  0  0  0  0  0  0  0  0
    2.9030    0.4610    0.0000 O   0  0  0  0  0  0  0  0  0  0  0  0
    3.9030   -1.2710    0.0000 O   0  0  0  0  0  0  0  0  0  0  0  0
   11.1972    0.0950    0.0000 O   0  0  0  0  0  0  0  0  0  0  0  0
   10.3312   -1.4050    0.0000 O   0  0  0  0  0  0  0  0  0  0  0  0
    9.4651    1.0950    0.0000 N   0  0  0  0  0  0  0  0  0  0  0  0
    6.8671   -0.4050    0.0000 C   0  0  0  0  0  0  0  0  0  0  0  0
    6.0010    0.0950    0.0000 C   0  0  0  0  0  0  0  0  0  0  0  0
    7.7331    0.0950    0.0000 C   0  0  0  0  0  0  0  0  0  0  0  0
    5.1350   -0.4050    0.0000 C   0  0  0  0  0  0  0  0  0  0  0  0
    8.5991   -0.4050    0.0000 C   0  0  0  0  0  0  0  0  0  0  0  0
    4.2690    0.0950    0.0000 C   0  0  0  0  0  0  0  0  0  0  0  0
    9.4651    0.0950    0.0000 C   0  0  0  0  0  0  0  0  0  0  0  0
   10.3312   -0.4050    0.0000 C   0  0  0  0  0  0  0  0  0  0  0  0
  1  2  1  0
  1  3  1  0
  1  4  2  0
  1 13  1  0
  5 15  1  0
  6 15  2  0
  7 14  1  0
  8  9  1  0
  8 10  1  0
  9 11  1  0
 10 12  1  0
 11 13  1  0
 12 14  1  0
 14 15  1  0
M  END
>  <PUBCHEM_COMPOUND_CID>  (31) 
3123

>  <PUBCHEM_COMPOUND_CANONICALIZED>  (31) 
1

>  <PUBCHEM_CACTVS_COMPLEXITY>  (31) 
239

>  <PUBCHEM_CACTVS_HBOND_ACCEPTOR>  (31) 
6

>  <PUBCHEM_CACTVS_HBOND_DONOR>  (31) 
4

>  <PUBCHEM_CACTVS_ROTATABLE_BOND>  (31) 
8

>  <PUBCHEM_CACTVS_SUBSKEYS>  (31) 
AAADceByOAIAAAAAAAAAAAAAAAAAAAAAAAAAAAAAAAAAAAAAAAAAHggQCCAACCjJgAQACABAAhAIQACQCIAAAAAAAAAAAIGAAAACABIAgAAAQAAEEAAAAAGYyKCAAAAAAAAAAAAAAAAAAAAAAAAAAAAAAA==

>  <PUBCHEM_IUPAC_OPENEYE_NAME>  (31) 
2-amino-8-phosphono-octanoic acid

>  <PUBCHEM_IUPAC_CAS_NAME>  (31) 
2-amino-8-phosphonooctanoic acid

>  <PUBCHEM_IUPAC_NAME_MARKUP>  (31) 
2-amino-8-phosphonooctanoic acid

>  <PUBCHEM_IUPAC_NAME>  (31) 
2-amino-8-phosphonooctanoic acid

>  <PUBCHEM_IUPAC_SYSTEMATIC_NAME>  (31) 
2-azanyl-8-phosphono-octanoic acid

>  <PUBCHEM_IUPAC_TRADITIONAL_NAME>  (31) 
2-amino-8-phosphono-caprylic acid

>  <PUBCHEM_IUPAC_INCHI>  (31) 
InChI=1S/C8H18NO5P/c9-7(8(10)11)5-3-1-2-4-6-15(12,13)14/h7H,1-6,9H2,(H,10,11)(H2,12,13,14)

>  <PUBCHEM_IUPAC_INCHIKEY>  (31) 
KGGCRFYWXLVUQQ-UHFFFAOYSA-N

>  <PUBCHEM_XLOGP3>  (31) 
-3.2

>  <PUBCHEM_EXACT_MASS>  (31) 
239.09225967

>  <PUBCHEM_MOLECULAR_FORMULA>  (31) 
C8H18NO5P

>  <PUBCHEM_MOLECULAR_WEIGHT>  (31) 
239.21

>  <PUBCHEM_SMILES>  (31) 
C(CCCP(=O)(O)O)CCC(C(=O)O)N

>  <PUBCHEM_CONNECTIVITY_SMILES>  (31) 
C(CCCP(=O)(O)O)CCC(C(=O)O)N

>  <PUBCHEM_CACTVS_TPSA>  (31) 
121

>  <PUBCHEM_MONOISOTOPIC_WEIGHT>  (31) 
239.09225967

>  <PUBCHEM_TOTAL_CHARGE>  (31) 
0

>  <PUBCHEM_HEAVY_ATOM_COUNT>  (31) 
15

>  <PUBCHEM_ATOM_DEF_STEREO_COUNT>  (31) 
0

>  <PUBCHEM_ATOM_UDEF_STEREO_COUNT>  (31) 
1

>  <PUBCHEM_BOND_DEF_STEREO_COUNT>  (31) 
0

>  <PUBCHEM_BOND_UDEF_STEREO_COUNT>  (31) 
0

>  <PUBCHEM_ISOTOPIC_ATOM_COUNT>  (31) 
0

>  <PUBCHEM_COMPONENT_COUNT>  (31) 
1

>  <PUBCHEM_CACTVS_TAUTO_COUNT>  (31) 
-1

>  <PUBCHEM_COORDINATE_TYPE>  (31) 
1
5
255

>  <PUBCHEM_BONDANNOTATIONS>  (31) 
14  28  3

$$$$
3146
     RDKit          2D

 24 23  0  0  0  0  0  0  0  0999 V2000
    2.5369    0.7500    0.0000 O   0  0  0  0  0  0  0  0  0  0  0  0
    3.4030   -0.7500    0.0000 O   0  0  0  0  0  0  0  0  0  0  0  0
    8.5991    0.2500    0.0000 C   0  0  0  0  0  0  0  0  0  0  0  0
    9.4651    0.7500    0.0000 C   0  0  0  0  0  0  0  0  0  0  0  0
    7.7331    0.7500    0.0000 C   0  0  0  0  0  0  0  0  0  0  0  0
   10.3312    0.2500    0.0000 C   0  0  0  0  0  0  0  0  0  0  0  0
    6.8671    0.2500    0.0000 C   0  0  0  0  0  0  0  0  0  0  0  0
   11.1972    0.7500    0.0000 C   0  0  0  0  0  0  0  0  0  0  0  0
    6.0010    0.7500    0.0000 C   0  0  0  0  0  0  0  0  0  0  0  0
   12.0632    0.2500    0.0000 C   0  0  0  0  0  0  0  0  0  0  0  0
    5.1350    0.2500    0.0000 C   0  0  0  0  0  0  0  0  0  0  0  0
   12.9292    0.7500    0.0000 C   0  0  0  0  0  0  0  0  0  0  0  0
    4.2690    0.7500    0.0000 C   0  0  0  0  0  0  0  0  0  0  0  0
   13.7953    0.2500    0.0000 C   0  0  0  0  0  0  0  0  0  0  0  0
    3.4030    0.2500    0.0000 C   0  0  0  0  0  0  0  0  0  0  0  0
   14.6613    0.7500    0.0000 C   0  0  0  0  0  0  0  0  0  0  0  0
   15.5273    0.2500    0.0000 C   0  0  0  0  0  0  0  0  0  0  0  0
   16.3933    0.7500    0.0000 C   0  0  0  0  0  0  0  0  0  0  0  0
   17.2594    0.2500    0.0000 C   0  0  0  0  0  0  0  0  0  0  0  0
   18.1254    0.7500    0.0000 C   0  0  0  0  0  0  0  0  0  0  0  0
   18.9914    0.2500    0.0000 C   0  0  0  0  0  0  0  0  0  0  0  0
   19.8574    0.7500    0.0000 C   0  0  0  0  0  0  0  0  0  0  0  0
   20.7235    0.2500    0.0000 C   0  0  0  0  0  0  0  0  0  0  0  0
   21.5895    0.7500    0.0000 C   0  0  0  0  0  0  0  0  0  0  0  0
  1 15  1  0
  2 15  2  0
  3  4  1  0
  3  5  1  0
  4  6  1  0
  5  7  1  0
  6  8  1  0
  7  9  1  0
  8 10  1  0
  9 11  1  0
 10 12  1  0
 11 13  1  0
 12 14  1  0
 13 15  1  0
 14 16  2  3
 16 17  1  0
 17 18  1  0
 18 19  2  3
 19 20  1  0
 20 21  1  0
 21 22  2  3
 22 23  1  0
 23 24  1  0
M  END
>  <PUBCHEM_COMPOUND_CID>  (32) 
3146

>  <PUBCHEM_COMPOUND_CANONICALIZED>  (32) 
1

>  <PUBCHEM_CACTVS_COMPLEXITY>  (32) 
353

>  <PUBCHEM_CACTVS_HBOND_ACCEPTOR>  (32) 
2

>  <PUBCHEM_CACTVS_HBOND_DONOR>  (32) 
1

>  <PUBCHEM_CACTVS_ROTATABLE_BOND>  (32) 
17

>  <PUBCHEM_CACTVS_SUBSKEYS>  (32) 
AAADcfB4MAAAAAAAAAAAAAAAAAAAAAAAAAAAAAAAAAAAAAAAAAAAGgAACAAACACAgAACCAAAAgCIACDSCAAAAAAgAAAICAEAAAgAABIAAQAAQAAEgAAIAAOIyKCAAAAAAAAAAAAAAAAAAAAAAAAAAAAAAA==

>  <PUBCHEM_IUPAC_OPENEYE_NAME>  (32) 
docosa-13,16,19-trienoic acid

>  <PUBCHEM_IUPAC_CAS_NAME>  (32) 
docosa-13,16,19-trienoic acid

>  <PUBCHEM_IUPAC_NAME_MARKUP>  (32) 
docosa-13,16,19-trienoic acid

>  <PUBCHEM_IUPAC_NAME>  (32) 
docosa-13,16,19-trienoic acid

>  <PUBCHEM_IUPAC_SYSTEMATIC_NAME>  (32) 
docosa-13,16,19-trienoic acid

>  <PUBCHEM_IUPAC_TRADITIONAL_NAME>  (32) 
docosa-13,16,19-trienoic acid

>  <PUBCHEM_IUPAC_INCHI>  (32) 
InChI=1S/C22H38O2/c1-2-3-4-5-6-7-8-9-10-11-12-13-14-15-16-17-18-19-20-21-22(23)24/h3-4,6-7,9-10H,2,5,8,11-21H2,1H3,(H,23,24)

>  <PUBCHEM_IUPAC_INCHIKEY>  (32) 
WBBQTNCISCKUMU-UHFFFAOYSA-N

>  <PUBCHEM_XLOGP3>  (32) 
8

>  <PUBCHEM_EXACT_MASS>  (32) 
334.287180451

>  <PUBCHEM_MOLECULAR_FORMULA>  (32) 
C22H38O2

>  <PUBCHEM_MOLECULAR_WEIGHT>  (32) 
334.5

>  <PUBCHEM_SMILES>  (32) 
CCC=CCC=CCC=CCCCCCCCCCCCC(=O)O

>  <PUBCHEM_CONNECTIVITY_SMILES>  (32) 
CCC=CCC=CCC=CCCCCCCCCCCCC(=O)O

>  <PUBCHEM_CACTVS_TPSA>  (32) 
37.3

>  <PUBCHEM_MONOISOTOPIC_WEIGHT>  (32) 
334.287180451

>  <PUBCHEM_TOTAL_CHARGE>  (32) 
0

>  <PUBCHEM_HEAVY_ATOM_COUNT>  (32) 
24

>  <PUBCHEM_ATOM_DEF_STEREO_COUNT>  (32) 
0

>  <PUBCHEM_ATOM_UDEF_STEREO_COUNT>  (32) 
0

>  <PUBCHEM_BOND_DEF_STEREO_COUNT>  (32) 
0

>  <PUBCHEM_BOND_UDEF_STEREO_COUNT>  (32) 
3

>  <PUBCHEM_ISOTOPIC_ATOM_COUNT>  (32) 
0

>  <PUBCHEM_COMPONENT_COUNT>  (32) 
1

>  <PUBCHEM_CACTVS_TAUTO_COUNT>  (32) 
-1

>  <PUBCHEM_COORDINATE_TYPE>  (32) 
1
5
255

>  <PUBCHEM_BONDANNOTATIONS>  (32) 
14  16  1
18  19  1
21  22  1

$$$$
3222
     RDKit          2D

 27 28  0  0  1  0  0  0  0  0999 V2000
    6.3301    1.4806    0.0000 O   0  0  0  0  0  0  0  0  0  0  0  0
    7.9673    3.9285    0.0000 O   0  0  0  0  0  0  0  0  0  0  0  0
    7.4321    2.2812    0.0000 O   0  0  0  0  0  0  0  0  0  0  0  0
    2.8660    1.4806    0.0000 O   0  0  0  0  0  0  0  0  0  0  0  0
    2.0000   -0.0194    0.0000 O   0  0  0  0  0  0  0  0  0  0  0  0
    5.4641    2.9806    0.0000 N   0  0  0  0  0  0  0  0  0  0  0  0
    4.5981    0.4806    0.0000 N   0  0  0  0  0  0  0  0  0  0  0  0
    6.2731    3.5684    0.0000 C   0  0  0  0  0  0  0  0  0  0  0  0
    5.9641    4.5194    0.0000 C   0  0  0  0  0  0  0  0  0  0  0  0
    4.9641    4.5194    0.0000 C   0  0  0  0  0  0  0  0  0  0  0  0
    4.6551    3.5684    0.0000 C   0  0  0  0  0  0  0  0  0  0  0  0
    5.4641    1.9806    0.0000 C   0  0  0  0  0  0  0  0  0  0  0  0
    4.5981    1.4806    0.0000 C   0  0  0  0  0  0  0  0  0  0  0  0
    7.2242    3.2594    0.0000 C   0  0  0  0  0  0  0  0  0  0  0  0
    3.7321   -0.0194    0.0000 C   0  0  0  0  0  0  0  0  0  0  0  0
    3.7321   -1.0194    0.0000 C   0  0  0  0  0  0  0  0  0  0  0  0
    3.7321    1.9806    0.0000 C   0  0  0  0  0  0  0  0  0  0  0  0
    2.8660   -1.5194    0.0000 C   0  0  0  0  0  0  0  0  0  0  0  0
    2.8660    0.4806    0.0000 C   0  0  0  0  0  0  0  0  0  0  0  0
    2.8660   -2.5194    0.0000 C   0  0  0  0  0  0  0  0  0  0  0  0
    3.7321   -3.0194    0.0000 C   0  0  0  0  0  0  0  0  0  0  0  0
    2.0000   -3.0194    0.0000 C   0  0  0  0  0  0  0  0  0  0  0  0
    2.0000    1.9806    0.0000 C   0  0  0  0  0  0  0  0  0  0  0  0
    3.7321   -4.0194    0.0000 C   0  0  0  0  0  0  0  0  0  0  0  0
    2.0000   -4.0194    0.0000 C   0  0  0  0  0  0  0  0  0  0  0  0
    2.8660   -4.5194    0.0000 C   0  0  0  0  0  0  0  0  0  0  0  0
    2.0000    2.9806    0.0000 C   0  0  0  0  0  0  0  0  0  0  0  0
  1 12  2  0
  2 14  1  0
  3 14  2  0
  4 19  1  0
  4 23  1  0
  5 19  2  0
  6  8  1  0
  6 11  1  0
  6 12  1  0
  7 13  1  0
  7 15  1  0
  8  9  1  0
  8 14  1  0
  9 10  1  0
 10 11  1  0
 12 13  1  0
 13 17  1  0
 15 16  1  0
 15 19  1  0
 16 18  1  0
 18 20  1  0
 20 21  2  0
 20 22  1  0
 21 24  1  0
 22 25  2  0
 23 27  1  0
 24 26  2  0
 25 26  1  0
M  END
>  <PUBCHEM_COMPOUND_CID>  (33) 
3222

>  <PUBCHEM_COMPOUND_CANONICALIZED>  (33) 
1

>  <PUBCHEM_CACTVS_COMPLEXITY>  (33) 
519

>  <PUBCHEM_CACTVS_HBOND_ACCEPTOR>  (33) 
6

>  <PUBCHEM_CACTVS_HBOND_DONOR>  (33) 
2

>  <PUBCHEM_CACTVS_ROTATABLE_BOND>  (33) 
10

>  <PUBCHEM_CACTVS_SUBSKEYS>  (33) 
AAADceB7OAAAAAAAAAAAAAAAAAAAAWAAAAAwAAAAAAAAAAABAAAAHgAQCAAADCjhmAYyCIPABgCIAiHSGAACAAAgAAAIiIGIAIgKYDKAkTCXYAAklgCYiAeY2bKOAAAAAAAAAAAAAAAAAAAAAAAAAAAAAA==

>  <PUBCHEM_IUPAC_OPENEYE_NAME>  (33) 
1-[2-[(1-ethoxycarbonyl-3-phenyl-propyl)amino]propanoyl]pyrrolidine-2-carboxylic acid

>  <PUBCHEM_IUPAC_CAS_NAME>  (33) 
1-[2-[(1-ethoxy-1-oxo-4-phenylbutan-2-yl)amino]-1-oxopropyl]-2-pyrrolidinecarboxylic acid

>  <PUBCHEM_IUPAC_NAME_MARKUP>  (33) 
1-[2-[(1-ethoxy-1-oxo-4-phenylbutan-2-yl)amino]propanoyl]pyrrolidine-2-carboxylic acid

>  <PUBCHEM_IUPAC_NAME>  (33) 
1-[2-[(1-ethoxy-1-oxo-4-phenylbutan-2-yl)amino]propanoyl]pyrrolidine-2-carboxylic acid

>  <PUBCHEM_IUPAC_SYSTEMATIC_NAME>  (33) 
1-[2-[(1-ethoxy-1-oxidanylidene-4-phenyl-butan-2-yl)amino]propanoyl]pyrrolidine-2-carboxylic acid

>  <PUBCHEM_IUPAC_TRADITIONAL_NAME>  (33) 
1-[2-[(1-carbethoxy-3-phenyl-propyl)amino]propanoyl]proline

>  <PUBCHEM_IUPAC_INCHI>  (33) 
InChI=1S/C20H28N2O5/c1-3-27-20(26)16(12-11-15-8-5-4-6-9-15)21-14(2)18(23)22-13-7-10-17(22)19(24)25/h4-6,8-9,14,16-17,21H,3,7,10-13H2,1-2H3,(H,24,25)

>  <PUBCHEM_IUPAC_INCHIKEY>  (33) 
GBXSMTUPTTWBMN-UHFFFAOYSA-N

>  <PUBCHEM_XLOGP3>  (33) 
-0.1

>  <PUBCHEM_EXACT_MASS>  (33) 
376.19982200

>  <PUBCHEM_MOLECULAR_FORMULA>  (33) 
C20H28N2O5

>  <PUBCHEM_MOLECULAR_WEIGHT>  (33) 
376.4

>  <PUBCHEM_SMILES>  (33) 
CCOC(=O)C(CCC1=CC=CC=C1)NC(C)C(=O)N2CCCC2C(=O)O

>  <PUBCHEM_CONNECTIVITY_SMILES>  (33) 
CCOC(=O)C(CCC1=CC=CC=C1)NC(C)C(=O)N2CCCC2C(=O)O

>  <PUBCHEM_CACTVS_TPSA>  (33) 
95.9

>  <PUBCHEM_MONOISOTOPIC_WEIGHT>  (33) 
376.19982200

>  <PUBCHEM_TOTAL_CHARGE>  (33) 
0

>  <PUBCHEM_HEAVY_ATOM_COUNT>  (33) 
27

>  <PUBCHEM_ATOM_DEF_STEREO_COUNT>  (33) 
0

>  <PUBCHEM_ATOM_UDEF_STEREO_COUNT>  (33) 
3

>  <PUBCHEM_BOND_DEF_STEREO_COUNT>  (33) 
0

>  <PUBCHEM_BOND_UDEF_STEREO_COUNT>  (33) 
0

>  <PUBCHEM_ISOTOPIC_ATOM_COUNT>  (33) 
0

>  <PUBCHEM_COMPONENT_COUNT>  (33) 
1

>  <PUBCHEM_CACTVS_TAUTO_COUNT>  (33) 
-1

>  <PUBCHEM_COORDINATE_TYPE>  (33) 
1
5
255

>  <PUBCHEM_BONDANNOTATIONS>  (33) 
13  35  3
15  36  3
20  21  8
20  22  8
21  24  8
22  25  8
24  26  8
25  26  8
8  14  3

$$$$
3544
     RDKit          2D

 17 18  0  0  0  0  0  0  0  0999 V2000
    4.2690   -0.2927    0.0000 S   0  0  0  0  0  0  0  0  0  0  0  0
    3.2690   -0.2927    0.0000 O   0  0  0  0  0  0  0  0  0  0  0  0
    5.2690   -0.2927    0.0000 O   0  0  0  0  0  0  0  0  0  0  0  0
    4.2690    0.7073    0.0000 N   0  0  0  0  0  0  0  0  0  0  0  0
    6.9350   -2.8135    0.0000 N   0  0  0  0  0  0  0  0  0  0  0  0
    2.5369    2.7073    0.0000 N   0  0  0  0  0  0  0  0  0  0  0  0
    4.2690   -1.2927    0.0000 C   0  0  0  0  0  0  0  0  0  0  0  0
    5.1350   -1.7927    0.0000 C   0  0  0  0  0  0  0  0  0  0  0  0
    5.1350   -2.7927    0.0000 C   0  0  0  0  0  0  0  0  0  0  0  0
    3.4030    1.2073    0.0000 C   0  0  0  0  0  0  0  0  0  0  0  0
    3.4030   -1.7927    0.0000 C   0  0  0  0  0  0  0  0  0  0  0  0
    4.2690   -3.2927    0.0000 C   0  0  0  0  0  0  0  0  0  0  0  0
    3.4030    2.2073    0.0000 C   0  0  0  0  0  0  0  0  0  0  0  0
    6.0290   -1.2580    0.0000 C   0  0  0  0  0  0  0  0  0  0  0  0
    3.4030   -2.7927    0.0000 C   0  0  0  0  0  0  0  0  0  0  0  0
    6.0290   -3.3273    0.0000 C   0  0  0  0  0  0  0  0  0  0  0  0
    6.9350   -1.7719    0.0000 C   0  0  0  0  0  0  0  0  0  0  0  0
  1  2  2  0
  1  3  2  0
  1  4  1  0
  1  7  1  0
  4 10  1  0
  5 16  2  0
  5 17  1  0
  6 13  1  0
  7  8  1  0
  7 11  2  0
  8  9  2  0
  8 14  1  0
  9 12  1  0
  9 16  1  0
 10 13  1  0
 11 15  1  0
 12 15  2  0
 14 17  2  0
M  END
>  <PUBCHEM_COMPOUND_CID>  (34) 
3544

>  <PUBCHEM_COMPOUND_CANONICALIZED>  (34) 
1

>  <PUBCHEM_CACTVS_COMPLEXITY>  (34) 
339

>  <PUBCHEM_CACTVS_HBOND_ACCEPTOR>  (34) 
5

>  <PUBCHEM_CACTVS_HBOND_DONOR>  (34) 
2

>  <PUBCHEM_CACTVS_ROTATABLE_BOND>  (34) 
4

>  <PUBCHEM_CACTVS_SUBSKEYS>  (34) 
AAADccBzMABAAAAAAAAAAAAAAAAAAAAAAAA8QAAAAAAAAACx8AAAHAQQQAAADADBWgQ8gdJIEAKgAjBnRHDCgDAxAiAI2Lg4ZJgIYOLAkZGEIAhgkADIyAcQgIAOgAAAgAAUAAAAAAEAACgAAAAAAAAAAA==

>  <PUBCHEM_IUPAC_OPENEYE_NAME>  (34) 
N-(2-aminoethyl)isoquinoline-5-sulfonamide

>  <PUBCHEM_IUPAC_CAS_NAME>  (34) 
N-(2-aminoethyl)-5-isoquinolinesulfonamide

>  <PUBCHEM_IUPAC_NAME_MARKUP>  (34) 
<I>N</I>-(2-aminoethyl)isoquinoline-5-sulfonamide

>  <PUBCHEM_IUPAC_NAME>  (34) 
N-(2-aminoethyl)isoquinoline-5-sulfonamide

>  <PUBCHEM_IUPAC_SYSTEMATIC_NAME>  (34) 
N-(2-azanylethyl)isoquinoline-5-sulfonamide

>  <PUBCHEM_IUPAC_TRADITIONAL_NAME>  (34) 
N-(2-aminoethyl)isoquinoline-5-sulfonamide

>  <PUBCHEM_IUPAC_INCHI>  (34) 
InChI=1S/C11H13N3O2S/c12-5-7-14-17(15,16)11-3-1-2-9-8-13-6-4-10(9)11/h1-4,6,8,14H,5,7,12H2

>  <PUBCHEM_IUPAC_INCHIKEY>  (34) 
DCVZSHVZGVWQKV-UHFFFAOYSA-N

>  <PUBCHEM_XLOGP3_AA>  (34) 
0.1

>  <PUBCHEM_EXACT_MASS>  (34) 
251.07284784

>  <PUBCHEM_MOLECULAR_FORMULA>  (34) 
C11H13N3O2S

>  <PUBCHEM_MOLECULAR_WEIGHT>  (34) 
251.31

>  <PUBCHEM_SMILES>  (34) 
C1=CC2=C(C=CN=C2)C(=C1)S(=O)(=O)NCCN

>  <PUBCHEM_CONNECTIVITY_SMILES>  (34) 
C1=CC2=C(C=CN=C2)C(=C1)S(=O)(=O)NCCN

>  <PUBCHEM_CACTVS_TPSA>  (34) 
93.5

>  <PUBCHEM_MONOISOTOPIC_WEIGHT>  (34) 
251.07284784

>  <PUBCHEM_TOTAL_CHARGE>  (34) 
0

>  <PUBCHEM_HEAVY_ATOM_COUNT>  (34) 
17

>  <PUBCHEM_ATOM_DEF_STEREO_COUNT>  (34) 
0

>  <PUBCHEM_ATOM_UDEF_STEREO_COUNT>  (34) 
0

>  <PUBCHEM_BOND_DEF_STEREO_COUNT>  (34) 
0

>  <PUBCHEM_BOND_UDEF_STEREO_COUNT>  (34) 
0

>  <PUBCHEM_ISOTOPIC_ATOM_COUNT>  (34) 
0

>  <PUBCHEM_COMPONENT_COUNT>  (34) 
1

>  <PUBCHEM_CACTVS_TAUTO_COUNT>  (34) 
-1

>  <PUBCHEM_COORDINATE_TYPE>  (34) 
1
5
255

>  <PUBCHEM_BONDANNOTATIONS>  (34) 
11  15  8
12  15  8
14  17  8
5  16  8
5  17  8
7  11  8
7  8  8
8  14  8
8  9  8
9  12  8
9  16  8

$$$$
4156
     RDKit          2D

  6  5  0  0  0  0  0  0  0  0999 V2000
    2.8660    0.0000    0.0000 S   0  0  0  0  0  0  0  0  0  0  0  0
    3.7321    0.5000    0.0000 O   0  0  0  0  0  0  0  0  0  0  0  0
    2.3660    0.8660    0.0000 O   0  0  0  0  0  0  0  0  0  0  0  0
    3.3660   -0.8660    0.0000 O   0  0  0  0  0  0  0  0  0  0  0  0
    2.0000   -0.5000    0.0000 C   0  0  0  0  0  0  0  0  0  0  0  0
    4.5981    0.0000    0.0000 C   0  0  0  0  0  0  0  0  0  0  0  0
  1  2  1  0
  1  3  2  0
  1  4  2  0
  1  5  1  0
  2  6  1  0
M  END
>  <PUBCHEM_COMPOUND_CID>  (35) 
4156

>  <PUBCHEM_COMPOUND_CANONICALIZED>  (35) 
1

>  <PUBCHEM_CACTVS_COMPLEXITY>  (35) 
105

>  <PUBCHEM_CACTVS_HBOND_ACCEPTOR>  (35) 
3

>  <PUBCHEM_CACTVS_HBOND_DONOR>  (35) 
0

>  <PUBCHEM_CACTVS_ROTATABLE_BOND>  (35) 
1

>  <PUBCHEM_CACTVS_SUBSKEYS>  (35) 
AAADcYBAMABAAAAAAAAAAAAAAAAAAAAAAAAAAAAAAAAAAAAAAAAAEgQAAAAAAAAAAAKCAAAAAAIAAAAAAHAAAAAAAAAAAAAAAAAAAAAAAAAAAAAAAAAAAAAAAAAAAAAAAAAAAAAAAAAAAAAAAAAAAAAAAA==

>  <PUBCHEM_IUPAC_OPENEYE_NAME>  (35) 
methyl methanesulfonate

>  <PUBCHEM_IUPAC_CAS_NAME>  (35) 
methanesulfonic acid methyl ester

>  <PUBCHEM_IUPAC_NAME_MARKUP>  (35) 
methyl methanesulfonate

>  <PUBCHEM_IUPAC_NAME>  (35) 
methyl methanesulfonate

>  <PUBCHEM_IUPAC_SYSTEMATIC_NAME>  (35) 
methyl methanesulfonate

>  <PUBCHEM_IUPAC_TRADITIONAL_NAME>  (35) 
methanesulfonic acid methyl ester

>  <PUBCHEM_IUPAC_INCHI>  (35) 
InChI=1S/C2H6O3S/c1-5-6(2,3)4/h1-2H3

>  <PUBCHEM_IUPAC_INCHIKEY>  (35) 
MBABOKRGFJTBAE-UHFFFAOYSA-N

>  <PUBCHEM_XLOGP3_AA>  (35) 
-0.4

>  <PUBCHEM_EXACT_MASS>  (35) 
110.00376522

>  <PUBCHEM_MOLECULAR_FORMULA>  (35) 
C2H6O3S

>  <PUBCHEM_MOLECULAR_WEIGHT>  (35) 
110.13

>  <PUBCHEM_SMILES>  (35) 
COS(=O)(=O)C

>  <PUBCHEM_CONNECTIVITY_SMILES>  (35) 
COS(=O)(=O)C

>  <PUBCHEM_CACTVS_TPSA>  (35) 
51.8

>  <PUBCHEM_MONOISOTOPIC_WEIGHT>  (35) 
110.00376522

>  <PUBCHEM_TOTAL_CHARGE>  (35) 
0

>  <PUBCHEM_HEAVY_ATOM_COUNT>  (35) 
6

>  <PUBCHEM_ATOM_DEF_STEREO_COUNT>  (35) 
0

>  <PUBCHEM_ATOM_UDEF_STEREO_COUNT>  (35) 
0

>  <PUBCHEM_BOND_DEF_STEREO_COUNT>  (35) 
0

>  <PUBCHEM_BOND_UDEF_STEREO_COUNT>  (35) 
0

>  <PUBCHEM_ISOTOPIC_ATOM_COUNT>  (35) 
0

>  <PUBCHEM_COMPONENT_COUNT>  (35) 
1

>  <PUBCHEM_CACTVS_TAUTO_COUNT>  (35) 
-1

>  <PUBCHEM_COORDINATE_TYPE>  (35) 
1
5
255

$$$$
4324
     RDKit          2D

 22 23  0  0  0  0  0  0  0  0999 V2000
    7.7331   -1.1550    0.0000 P   0  0  0  0  0  0  0  0  0  0  0  0
    6.0010    2.8450    0.0000 O   0  0  0  0  0  0  0  0  0  0  0  0
    6.8671    1.3450    0.0000 O   0  0  0  0  0  0  0  0  0  0  0  0
    2.5369   -1.1550    0.0000 O   0  0  0  0  0  0  0  0  0  0  0  0
    6.8671   -1.6550    0.0000 O   0  0  0  0  0  0  0  0  0  0  0  0
    8.5991   -0.6550    0.0000 O   0  0  0  0  0  0  0  0  0  0  0  0
    8.2331   -2.0210    0.0000 O   0  0  0  0  0  0  0  0  0  0  0  0
    7.2331   -0.2890    0.0000 O   0  0  0  0  0  0  0  0  0  0  0  0
    5.1350    0.3450    0.0000 N   0  0  0  0  0  0  0  0  0  0  0  0
    4.2690   -3.1550    0.0000 N   0  0  0  0  0  0  0  0  0  0  0  0
    5.1350    1.3450    0.0000 C   0  0  0  0  0  0  0  0  0  0  0  0
    4.6350    2.2110    0.0000 C   0  0  0  0  0  0  0  0  0  0  0  0
    4.1350    1.3450    0.0000 C   0  0  0  0  0  0  0  0  0  0  0  0
    6.0010    1.8450    0.0000 C   0  0  0  0  0  0  0  0  0  0  0  0
    4.2690   -0.1550    0.0000 C   0  0  0  0  0  0  0  0  0  0  0  0
    4.2690   -1.1550    0.0000 C   0  0  0  0  0  0  0  0  0  0  0  0
    5.1350   -1.6550    0.0000 C   0  0  0  0  0  0  0  0  0  0  0  0
    3.4030   -1.6550    0.0000 C   0  0  0  0  0  0  0  0  0  0  0  0
    6.0010   -1.1550    0.0000 C   0  0  0  0  0  0  0  0  0  0  0  0
    3.4030   -2.6550    0.0000 C   0  0  0  0  0  0  0  0  0  0  0  0
    5.1350   -2.6550    0.0000 C   0  0  0  0  0  0  0  0  0  0  0  0
    2.5369   -3.1550    0.0000 C   0  0  0  0  0  0  0  0  0  0  0  0
  1  5  1  0
  1  6  1  0
  1  7  1  0
  1  8  2  0
  2 14  1  0
  3 14  2  0
  4 18  1  0
  5 19  1  0
  9 11  1  0
  9 15  1  0
 10 20  2  0
 10 21  1  0
 11 12  1  0
 11 13  1  0
 11 14  1  0
 12 13  1  0
 15 16  1  0
 16 17  1  0
 16 18  2  0
 17 19  1  0
 17 21  2  0
 18 20  1  0
 20 22  1  0
M  END
>  <PUBCHEM_COMPOUND_CID>  (36) 
4324

>  <PUBCHEM_COMPOUND_CANONICALIZED>  (36) 
1

>  <PUBCHEM_CACTVS_COMPLEXITY>  (36) 
464

>  <PUBCHEM_CACTVS_HBOND_ACCEPTOR>  (36) 
9

>  <PUBCHEM_CACTVS_HBOND_DONOR>  (36) 
5

>  <PUBCHEM_CACTVS_ROTATABLE_BOND>  (36) 
7

>  <PUBCHEM_CACTVS_SUBSKEYS>  (36) 
AAADceBzOAIAAAAAAAAAAAAAGAAAAAAAAAAsAAAAAAAAAAABgAAAHgAQCCAADIzhngYujpLIExCoQxT3TISCgCAxYCAA2KG9TJgKJnLSkbOEcAhm0BHY2AfwUAMOgAAAAAAAAAAAAAAAAAAAAAAAAAAAAA==

>  <PUBCHEM_IUPAC_OPENEYE_NAME>  (36) 
1-[[3-hydroxy-2-methyl-5-(phosphonooxymethyl)-4-pyridyl]methylamino]cyclopropanecarboxylic acid

>  <PUBCHEM_IUPAC_CAS_NAME>  (36) 
1-[[3-hydroxy-2-methyl-5-(phosphonooxymethyl)-4-pyridinyl]methylamino]-1-cyclopropanecarboxylic acid

>  <PUBCHEM_IUPAC_NAME_MARKUP>  (36) 
1-[[3-hydroxy-2-methyl-5-(phosphonooxymethyl)pyridin-4-yl]methylamino]cyclopropane-1-carboxylic acid

>  <PUBCHEM_IUPAC_NAME>  (36) 
1-[[3-hydroxy-2-methyl-5-(phosphonooxymethyl)pyridin-4-yl]methylamino]cyclopropane-1-carboxylic acid

>  <PUBCHEM_IUPAC_SYSTEMATIC_NAME>  (36) 
1-[[2-methyl-3-oxidanyl-5-(phosphonooxymethyl)pyridin-4-yl]methylamino]cyclopropane-1-carboxylic acid

>  <PUBCHEM_IUPAC_TRADITIONAL_NAME>  (36) 
1-[[3-hydroxy-2-methyl-5-(phosphonooxymethyl)-4-pyridyl]methylamino]cyclopropanecarboxylic acid

>  <PUBCHEM_IUPAC_INCHI>  (36) 
InChI=1S/C12H17N2O7P/c1-7-10(15)9(5-14-12(2-3-12)11(16)17)8(4-13-7)6-21-22(18,19)20/h4,14-15H,2-3,5-6H2,1H3,(H,16,17)(H2,18,19,20)

>  <PUBCHEM_IUPAC_INCHIKEY>  (36) 
ZMHRUAWWUAOOQN-UHFFFAOYSA-N

>  <PUBCHEM_XLOGP3_AA>  (36) 
-4.1

>  <PUBCHEM_EXACT_MASS>  (36) 
332.07733788

>  <PUBCHEM_MOLECULAR_FORMULA>  (36) 
C12H17N2O7P

>  <PUBCHEM_MOLECULAR_WEIGHT>  (36) 
332.25

>  <PUBCHEM_SMILES>  (36) 
CC1=NC=C(C(=C1O)CNC2(CC2)C(=O)O)COP(=O)(O)O

>  <PUBCHEM_CONNECTIVITY_SMILES>  (36) 
CC1=NC=C(C(=C1O)CNC2(CC2)C(=O)O)COP(=O)(O)O

>  <PUBCHEM_CACTVS_TPSA>  (36) 
149

>  <PUBCHEM_MONOISOTOPIC_WEIGHT>  (36) 
332.07733788

>  <PUBCHEM_TOTAL_CHARGE>  (36) 
0

>  <PUBCHEM_HEAVY_ATOM_COUNT>  (36) 
22

>  <PUBCHEM_ATOM_DEF_STEREO_COUNT>  (36) 
0

>  <PUBCHEM_ATOM_UDEF_STEREO_COUNT>  (36) 
0

>  <PUBCHEM_BOND_DEF_STEREO_COUNT>  (36) 
0

>  <PUBCHEM_BOND_UDEF_STEREO_COUNT>  (36) 
0

>  <PUBCHEM_ISOTOPIC_ATOM_COUNT>  (36) 
0

>  <PUBCHEM_COMPONENT_COUNT>  (36) 
1

>  <PUBCHEM_CACTVS_TAUTO_COUNT>  (36) 
-1

>  <PUBCHEM_COORDINATE_TYPE>  (36) 
1
5
255

>  <PUBCHEM_BONDANNOTATIONS>  (36) 
10  20  8
10  21  8
16  17  8
16  18  8
17  21  8
18  20  8

$$$$
4625
     RDKit          2D

 16 18  0  0  0  0  0  0  0  0999 V2000
    6.2619   -1.0089    0.0000 O   0  0  0  0  0  0  0  0  0  0  0  0
    4.6783   -1.8136    0.0000 N   0  0  0  0  0  0  0  0  0  0  0  0
    6.3758    1.8654    0.0000 N   0  0  0  0  0  0  0  0  0  0  0  0
    3.7320   -0.5089    0.0000 C   0  0  0  0  0  0  0  0  0  0  0  0
    4.6783   -0.2041    0.0000 C   0  0  0  0  0  0  0  0  0  0  0  0
    3.7320   -1.5089    0.0000 C   0  0  0  0  0  0  0  0  0  0  0  0
    5.2619   -1.0089    0.0000 C   0  0  0  0  0  0  0  0  0  0  0  0
    4.9889    0.7464    0.0000 C   0  0  0  0  0  0  0  0  0  0  0  0
    2.8660   -0.0089    0.0000 C   0  0  0  0  0  0  0  0  0  0  0  0
    5.9674    0.9526    0.0000 C   0  0  0  0  0  0  0  0  0  0  0  0
    2.8660   -2.0089    0.0000 C   0  0  0  0  0  0  0  0  0  0  0  0
    2.0000   -0.5089    0.0000 C   0  0  0  0  0  0  0  0  0  0  0  0
    2.0000   -1.5089    0.0000 C   0  0  0  0  0  0  0  0  0  0  0  0
    6.7094    0.2822    0.0000 C   0  0  0  0  0  0  0  0  0  0  0  0
    7.3701    1.7592    0.0000 C   0  0  0  0  0  0  0  0  0  0  0  0
    7.5763    0.7807    0.0000 C   0  0  0  0  0  0  0  0  0  0  0  0
  1  7  2  0
  2  6  1  0
  2  7  1  0
  3 10  1  0
  3 15  1  0
  4  5  1  0
  4  6  2  0
  4  9  1  0
  5  7  1  0
  5  8  2  3
  6 11  1  0
  8 10  1  0
  9 12  2  0
 10 14  2  0
 11 13  2  0
 12 13  1  0
 14 16  1  0
 15 16  2  0
M  END
>  <PUBCHEM_COMPOUND_CID>  (37) 
4625

>  <PUBCHEM_COMPOUND_CANONICALIZED>  (37) 
1

>  <PUBCHEM_CACTVS_COMPLEXITY>  (37) 
324

>  <PUBCHEM_CACTVS_HBOND_ACCEPTOR>  (37) 
1

>  <PUBCHEM_CACTVS_HBOND_DONOR>  (37) 
2

>  <PUBCHEM_CACTVS_ROTATABLE_BOND>  (37) 
1

>  <PUBCHEM_CACTVS_SUBSKEYS>  (37) 
AAADccBzIAAAAAAAAAAAAAAAAAAAAWLAAAAwAAAAAAAAAFgBwAAAHgAQAAAADAjBngQ8wJLJkACoAzV3VACCgCAxAiAI2aE4ZNgIIPLAlZGEIAhglADIyYcciICOAAAAAAACAAAAAAAAAAQAAAAAAAAAAA==

>  <PUBCHEM_IUPAC_OPENEYE_NAME>  (37) 
3-(1H-pyrrol-2-ylmethylene)indolin-2-one

>  <PUBCHEM_IUPAC_CAS_NAME>  (37) 
3-(1H-pyrrol-2-ylmethylidene)-1H-indol-2-one

>  <PUBCHEM_IUPAC_NAME_MARKUP>  (37) 
3-(1<I>H</I>-pyrrol-2-ylmethylidene)-1<I>H</I>-indol-2-one

>  <PUBCHEM_IUPAC_NAME>  (37) 
3-(1H-pyrrol-2-ylmethylidene)-1H-indol-2-one

>  <PUBCHEM_IUPAC_SYSTEMATIC_NAME>  (37) 
3-(1H-pyrrol-2-ylmethylidene)-1H-indol-2-one

>  <PUBCHEM_IUPAC_TRADITIONAL_NAME>  (37) 
3-(1H-pyrrol-2-ylmethylene)oxindole

>  <PUBCHEM_IUPAC_INCHI>  (37) 
InChI=1S/C13H10N2O/c16-13-11(8-9-4-3-7-14-9)10-5-1-2-6-12(10)15-13/h1-8,14H,(H,15,16)

>  <PUBCHEM_IUPAC_INCHIKEY>  (37) 
SEZFNTZQMWJIAI-UHFFFAOYSA-N

>  <PUBCHEM_XLOGP3_AA>  (37) 
1.7

>  <PUBCHEM_EXACT_MASS>  (37) 
210.079312947

>  <PUBCHEM_MOLECULAR_FORMULA>  (37) 
C13H10N2O

>  <PUBCHEM_MOLECULAR_WEIGHT>  (37) 
210.23

>  <PUBCHEM_SMILES>  (37) 
C1=CC=C2C(=C1)C(=CC3=CC=CN3)C(=O)N2

>  <PUBCHEM_CONNECTIVITY_SMILES>  (37) 
C1=CC=C2C(=C1)C(=CC3=CC=CN3)C(=O)N2

>  <PUBCHEM_CACTVS_TPSA>  (37) 
44.9

>  <PUBCHEM_MONOISOTOPIC_WEIGHT>  (37) 
210.079312947

>  <PUBCHEM_TOTAL_CHARGE>  (37) 
0

>  <PUBCHEM_HEAVY_ATOM_COUNT>  (37) 
16

>  <PUBCHEM_ATOM_DEF_STEREO_COUNT>  (37) 
0

>  <PUBCHEM_ATOM_UDEF_STEREO_COUNT>  (37) 
0

>  <PUBCHEM_BOND_DEF_STEREO_COUNT>  (37) 
0

>  <PUBCHEM_BOND_UDEF_STEREO_COUNT>  (37) 
1

>  <PUBCHEM_ISOTOPIC_ATOM_COUNT>  (37) 
0

>  <PUBCHEM_COMPONENT_COUNT>  (37) 
1

>  <PUBCHEM_CACTVS_TAUTO_COUNT>  (37) 
-1

>  <PUBCHEM_COORDINATE_TYPE>  (37) 
1
5
255

>  <PUBCHEM_BONDANNOTATIONS>  (37) 
10  14  8
11  13  8
12  13  8
14  16  8
15  16  8
3  10  8
3  15  8
4  6  8
4  9  8
5  8  1
6  11  8
9  12  8

$$$$
6293
     RDKit          2D

 18 20  0  0  0  0  0  0  0  0999 V2000
    6.4144    1.8592    0.0000 O   0  0  0  0  0  0  0  0  0  0  0  0
    4.6660    1.8246    0.0000 O   0  0  0  0  0  0  0  0  0  0  0  0
    4.6660   -2.1754    0.0000 O   0  0  0  0  0  0  0  0  0  0  0  0
    8.1962    0.8488    0.0000 O   0  0  0  0  0  0  0  0  0  0  0  0
    5.5321    0.3246    0.0000 C   0  0  0  0  0  0  0  0  0  0  0  0
    5.5321   -0.6754    0.0000 C   0  0  0  0  0  0  0  0  0  0  0  0
    3.8000    0.3246    0.0000 C   0  0  0  0  0  0  0  0  0  0  0  0
    3.8000   -0.6754    0.0000 C   0  0  0  0  0  0  0  0  0  0  0  0
    4.6660    0.8246    0.0000 C   0  0  0  0  0  0  0  0  0  0  0  0
    4.6660   -1.1754    0.0000 C   0  0  0  0  0  0  0  0  0  0  0  0
    6.4260    0.8593    0.0000 C   0  0  0  0  0  0  0  0  0  0  0  0
    6.4260   -1.2101    0.0000 C   0  0  0  0  0  0  0  0  0  0  0  0
    2.9061    0.8593    0.0000 C   0  0  0  0  0  0  0  0  0  0  0  0
    2.9061   -1.2101    0.0000 C   0  0  0  0  0  0  0  0  0  0  0  0
    7.3321    0.3454    0.0000 C   0  0  0  0  0  0  0  0  0  0  0  0
    7.3321   -0.6962    0.0000 C   0  0  0  0  0  0  0  0  0  0  0  0
    2.0000    0.3454    0.0000 C   0  0  0  0  0  0  0  0  0  0  0  0
    2.0000   -0.6962    0.0000 C   0  0  0  0  0  0  0  0  0  0  0  0
  1 11  1  0
  2  9  2  0
  3 10  2  0
  4 15  1  0
  5  6  2  0
  5  9  1  0
  5 11  1  0
  6 10  1  0
  6 12  1  0
  7  8  2  0
  7  9  1  0
  7 13  1  0
  8 10  1  0
  8 14  1  0
 11 15  2  0
 12 16  2  0
 13 17  2  0
 14 18  2  0
 15 16  1  0
 17 18  1  0
M  END
>  <PUBCHEM_COMPOUND_CID>  (38) 
6293

>  <PUBCHEM_COMPOUND_CANONICALIZED>  (38) 
1

>  <PUBCHEM_CACTVS_COMPLEXITY>  (38) 
378

>  <PUBCHEM_CACTVS_HBOND_ACCEPTOR>  (38) 
4

>  <PUBCHEM_CACTVS_HBOND_DONOR>  (38) 
2

>  <PUBCHEM_CACTVS_ROTATABLE_BOND>  (38) 
0

>  <PUBCHEM_CACTVS_SUBSKEYS>  (38) 
AAADccBwOAAAAAAAAAAAAAAAAAAAAAAAAAAwYMAAAAAAAADBQAAAGgAACAAADASAmAAwBoAAAgCIAqBSAAACAAAkIAAIiAEGiMgJJjaCFRKAcUEk4BEJmYeLzPDOoAABAAAYQADAAAYAADCAAAAAAAAAAA==

>  <PUBCHEM_IUPAC_OPENEYE_NAME>  (38) 
1,2-dihydroxyanthracene-9,10-dione

>  <PUBCHEM_IUPAC_CAS_NAME>  (38) 
1,2-dihydroxyanthracene-9,10-dione

>  <PUBCHEM_IUPAC_NAME_MARKUP>  (38) 
1,2-dihydroxyanthracene-9,10-dione

>  <PUBCHEM_IUPAC_NAME>  (38) 
1,2-dihydroxyanthracene-9,10-dione

>  <PUBCHEM_IUPAC_SYSTEMATIC_NAME>  (38) 
1,2-bis(oxidanyl)anthracene-9,10-dione

>  <PUBCHEM_IUPAC_TRADITIONAL_NAME>  (38) 
1,2-dihydroxy-9,10-anthraquinone

>  <PUBCHEM_IUPAC_INCHI>  (38) 
InChI=1S/C14H8O4/c15-10-6-5-9-11(14(10)18)13(17)8-4-2-1-3-7(8)12(9)16/h1-6,15,18H

>  <PUBCHEM_IUPAC_INCHIKEY>  (38) 
RGCKGOZRHPZPFP-UHFFFAOYSA-N

>  <PUBCHEM_XLOGP3>  (38) 
3.2

>  <PUBCHEM_EXACT_MASS>  (38) 
240.04225873

>  <PUBCHEM_MOLECULAR_FORMULA>  (38) 
C14H8O4

>  <PUBCHEM_MOLECULAR_WEIGHT>  (38) 
240.21

>  <PUBCHEM_SMILES>  (38) 
C1=CC=C2C(=C1)C(=O)C3=C(C2=O)C(=C(C=C3)O)O

>  <PUBCHEM_CONNECTIVITY_SMILES>  (38) 
C1=CC=C2C(=C1)C(=O)C3=C(C2=O)C(=C(C=C3)O)O

>  <PUBCHEM_CACTVS_TPSA>  (38) 
74.6

>  <PUBCHEM_MONOISOTOPIC_WEIGHT>  (38) 
240.04225873

>  <PUBCHEM_TOTAL_CHARGE>  (38) 
0

>  <PUBCHEM_HEAVY_ATOM_COUNT>  (38) 
18

>  <PUBCHEM_ATOM_DEF_STEREO_COUNT>  (38) 
0

>  <PUBCHEM_ATOM_UDEF_STEREO_COUNT>  (38) 
0

>  <PUBCHEM_BOND_DEF_STEREO_COUNT>  (38) 
0

>  <PUBCHEM_BOND_UDEF_STEREO_COUNT>  (38) 
0

>  <PUBCHEM_ISOTOPIC_ATOM_COUNT>  (38) 
0

>  <PUBCHEM_COMPONENT_COUNT>  (38) 
1

>  <PUBCHEM_CACTVS_TAUTO_COUNT>  (38) 
-1

>  <PUBCHEM_COORDINATE_TYPE>  (38) 
1
5
255

>  <PUBCHEM_BONDANNOTATIONS>  (38) 
11  15  8
12  16  8
13  17  8
14  18  8
15  16  8
17  18  8
5  11  8
5  6  8
6  12  8
7  13  8
7  8  8
8  14  8

$$$$
6785
     RDKit          2D

 20 20  0  0  0  0  0  0  0  0999 V2000
    7.1962   -0.2500    0.0000 O   0  0  0  0  0  0  0  0  0  0  0  0
    3.7321   -2.2500    0.0000 O   0  0  0  0  0  0  0  0  0  0  0  0
    8.0622    2.2500    0.0000 O   0  0  0  0  0  0  0  0  0  0  0  0
    5.4641   -0.2500    0.0000 O   0  0  0  0  0  0  0  0  0  0  0  0
    4.5981   -0.7500    0.0000 O   0  0  0  0  0  0  0  0  0  0  0  0
    8.9282    0.7500    0.0000 O   0  0  0  0  0  0  0  0  0  0  0  0
    6.3301   -1.7500    0.0000 C   0  0  0  0  0  0  0  0  0  0  0  0
    5.4641   -2.2500    0.0000 C   0  0  0  0  0  0  0  0  0  0  0  0
    7.1962   -2.2500    0.0000 C   0  0  0  0  0  0  0  0  0  0  0  0
    5.4641   -3.2500    0.0000 C   0  0  0  0  0  0  0  0  0  0  0  0
    6.3301   -0.7500    0.0000 C   0  0  0  0  0  0  0  0  0  0  0  0
    7.1962   -3.2500    0.0000 C   0  0  0  0  0  0  0  0  0  0  0  0
    6.3301   -3.7500    0.0000 C   0  0  0  0  0  0  0  0  0  0  0  0
    4.5981   -1.7500    0.0000 C   0  0  0  0  0  0  0  0  0  0  0  0
    7.1962    0.7500    0.0000 C   0  0  0  0  0  0  0  0  0  0  0  0
    2.8660   -1.7500    0.0000 C   0  0  0  0  0  0  0  0  0  0  0  0
    8.0622    1.2500    0.0000 C   0  0  0  0  0  0  0  0  0  0  0  0
    8.9282    2.7500    0.0000 C   0  0  0  0  0  0  0  0  0  0  0  0
    2.0000   -2.2500    0.0000 C   0  0  0  0  0  0  0  0  0  0  0  0
    8.9282    3.7500    0.0000 C   0  0  0  0  0  0  0  0  0  0  0  0
  1 11  1  0
  1 15  1  0
  2 14  1  0
  2 16  1  0
  3 17  1  0
  3 18  1  0
  4 11  2  0
  5 14  2  0
  6 17  2  0
  7  8  2  0
  7  9  1  0
  7 11  1  0
  8 10  1  0
  8 14  1  0
  9 12  2  0
 10 13  2  0
 12 13  1  0
 15 17  1  0
 16 19  1  0
 18 20  1  0
M  END
>  <PUBCHEM_COMPOUND_CID>  (39) 
6785

>  <PUBCHEM_COMPOUND_CANONICALIZED>  (39) 
1

>  <PUBCHEM_CACTVS_COMPLEXITY>  (39) 
352

>  <PUBCHEM_CACTVS_HBOND_ACCEPTOR>  (39) 
6

>  <PUBCHEM_CACTVS_HBOND_DONOR>  (39) 
0

>  <PUBCHEM_CACTVS_ROTATABLE_BOND>  (39) 
9

>  <PUBCHEM_CACTVS_SUBSKEYS>  (39) 
AAADceBwOAAAAAAAAAAAAAAAAAAAAAAAAAAwAAAAAAAAAAABAAAAGgAAAAAADACgmAIyCIAABACIAiDSCAICAAAkAAAIiAFACMgJJjKANRyCMQAkwAEKqYfLyKCOgAAAAAAQAAAAAAAAACAAAAAAAAAAAA==

>  <PUBCHEM_IUPAC_OPENEYE_NAME>  (39) 
O2-(2-ethoxy-2-oxo-ethyl) O1-ethyl benzene-1,2-dicarboxylate

>  <PUBCHEM_IUPAC_CAS_NAME>  (39) 
benzene-1,2-dicarboxylic acid O2-(2-ethoxy-2-oxoethyl) ester O1-ethyl ester

>  <PUBCHEM_IUPAC_NAME_MARKUP>  (39) 
2-<I>O</I>-(2-ethoxy-2-oxoethyl) 1-<I>O</I>-ethyl benzene-1,2-dicarboxylate

>  <PUBCHEM_IUPAC_NAME>  (39) 
2-O-(2-ethoxy-2-oxoethyl) 1-O-ethyl benzene-1,2-dicarboxylate

>  <PUBCHEM_IUPAC_SYSTEMATIC_NAME>  (39) 
O2-(2-ethoxy-2-oxidanylidene-ethyl) O1-ethyl benzene-1,2-dicarboxylate

>  <PUBCHEM_IUPAC_TRADITIONAL_NAME>  (39) 
benzene-1,2-dicarboxylic acid O2-(2-ethoxy-2-keto-ethyl) ester O1-ethyl ester

>  <PUBCHEM_IUPAC_INCHI>  (39) 
InChI=1S/C14H16O6/c1-3-18-12(15)9-20-14(17)11-8-6-5-7-10(11)13(16)19-4-2/h5-8H,3-4,9H2,1-2H3

>  <PUBCHEM_IUPAC_INCHIKEY>  (39) 
PZBLUWVMZMXIKZ-UHFFFAOYSA-N

>  <PUBCHEM_XLOGP3>  (39) 
2.4

>  <PUBCHEM_EXACT_MASS>  (39) 
280.09468823

>  <PUBCHEM_MOLECULAR_FORMULA>  (39) 
C14H16O6

>  <PUBCHEM_MOLECULAR_WEIGHT>  (39) 
280.27

>  <PUBCHEM_SMILES>  (39) 
CCOC(=O)COC(=O)C1=CC=CC=C1C(=O)OCC

>  <PUBCHEM_CONNECTIVITY_SMILES>  (39) 
CCOC(=O)COC(=O)C1=CC=CC=C1C(=O)OCC

>  <PUBCHEM_CACTVS_TPSA>  (39) 
78.9

>  <PUBCHEM_MONOISOTOPIC_WEIGHT>  (39) 
280.09468823

>  <PUBCHEM_TOTAL_CHARGE>  (39) 
0

>  <PUBCHEM_HEAVY_ATOM_COUNT>  (39) 
20

>  <PUBCHEM_ATOM_DEF_STEREO_COUNT>  (39) 
0

>  <PUBCHEM_ATOM_UDEF_STEREO_COUNT>  (39) 
0

>  <PUBCHEM_BOND_DEF_STEREO_COUNT>  (39) 
0

>  <PUBCHEM_BOND_UDEF_STEREO_COUNT>  (39) 
0

>  <PUBCHEM_ISOTOPIC_ATOM_COUNT>  (39) 
0

>  <PUBCHEM_COMPONENT_COUNT>  (39) 
1

>  <PUBCHEM_CACTVS_TAUTO_COUNT>  (39) 
-1

>  <PUBCHEM_COORDINATE_TYPE>  (39) 
1
5
255

>  <PUBCHEM_BONDANNOTATIONS>  (39) 
10  13  8
12  13  8
7  8  8
7  9  8
8  10  8
9  12  8

$$$$
6859
     RDKit          2D

 13 13  0  0  0  0  0  0  0  0999 V2000
    1.4924    0.6200    0.0000 Hg  0  0  0  0  0  1  0  0  0  0  0  0
    1.4030    3.2720    0.0000 O   0  0  0  0  0  0  0  0  0  0  0  0
    3.1629    4.2374    0.0000 N   0  0  0  0  0  0  0  0  0  0  0  0
    2.2690    5.7720    0.0000 C   0  0  0  0  0  0  0  0  0  0  0  0
    2.2690    4.7720    0.0000 C   0  0  0  0  0  0  0  0  0  0  0  0
    1.4030    6.2720    0.0000 C   0  0  0  0  0  0  0  0  0  0  0  0
    3.1629    6.3067    0.0000 C   0  0  0  0  0  0  0  0  0  0  0  0
    1.4030    4.2720    0.0000 C   0  0  0  0  0  0  0  0  0  0  0  0
    0.5369    5.7720    0.0000 C   0  0  0  0  0  0  0  0  0  0  0  0
    0.5369    4.7720    0.0000 C   0  0  0  0  0  0  0  0  0  0  0  0
    4.0690    5.7928    0.0000 C   0  0  0  0  0  0  0  0  0  0  0  0
    4.0690    4.7512    0.0000 C   0  0  0  0  0  0  0  0  0  0  0  0
    2.4924    0.6200    0.0000 C   0  0  0  0  0  0  0  0  0  0  0  0
  1 13  1  0
  2  8  1  0
  3  5  2  0
  3 12  1  0
  4  5  1  0
  4  6  1  0
  4  7  2  0
  5  8  1  0
  6  9  2  0
  7 11  1  0
  8 10  2  0
  9 10  1  0
 11 12  2  0
M  CHG  2   1   1   2  -1
M  END
>  <PUBCHEM_COMPOUND_CID>  (40) 
6859

>  <PUBCHEM_COMPOUND_CANONICALIZED>  (40) 
1

>  <PUBCHEM_CACTVS_COMPLEXITY>  (40) 
140

>  <PUBCHEM_CACTVS_HBOND_ACCEPTOR>  (40) 
2

>  <PUBCHEM_CACTVS_HBOND_DONOR>  (40) 
0

>  <PUBCHEM_CACTVS_ROTATABLE_BOND>  (40) 
0

>  <PUBCHEM_CACTVS_SUBSKEYS>  (40) 
AAADccByIAAAAAAAAAAAAQAAAAAAAAAAAAA8QAAAAAAAAACx8AAAHgAAAAAADAzBngQ+xvIIEACgAzRnRASCgCAxYiAI2CA/bJgKJuLAkZOEMAhkwBHYyAeQwLAOAAABAAACEAAAAAIAAAQgAAAAAAAAAA==

>  <PUBCHEM_IUPAC_OPENEYE_NAME>  (40) 
methylmercury(1+);quinolin-8-olate

>  <PUBCHEM_IUPAC_CAS_NAME>  (40) 
methylmercury(1+);8-quinolinolate

>  <PUBCHEM_IUPAC_NAME_MARKUP>  (40) 
methylmercury(1+);quinolin-8-olate

>  <PUBCHEM_IUPAC_NAME>  (40) 
methylmercury(1+);quinolin-8-olate

>  <PUBCHEM_IUPAC_SYSTEMATIC_NAME>  (40) 
methylmercury(1+);quinolin-8-olate

>  <PUBCHEM_IUPAC_TRADITIONAL_NAME>  (40) 
methylmercury(1+);quinolin-8-olate

>  <PUBCHEM_IUPAC_INCHI>  (40) 
InChI=1S/C9H7NO.CH3.Hg/c11-8-5-1-3-7-4-2-6-10-9(7)8;;/h1-6,11H;1H3;/q;;+1/p-1

>  <PUBCHEM_IUPAC_INCHIKEY>  (40) 
UHWDBWXPVYKTCB-UHFFFAOYSA-M

>  <PUBCHEM_EXACT_MASS>  (40) 
361.039058

>  <PUBCHEM_MOLECULAR_FORMULA>  (40) 
C10H9HgNO

>  <PUBCHEM_MOLECULAR_WEIGHT>  (40) 
359.78

>  <PUBCHEM_SMILES>  (40) 
C[Hg+].C1=CC2=C(C(=C1)[O-])N=CC=C2

>  <PUBCHEM_CONNECTIVITY_SMILES>  (40) 
C[Hg+].C1=CC2=C(C(=C1)[O-])N=CC=C2

>  <PUBCHEM_CACTVS_TPSA>  (40) 
36

>  <PUBCHEM_MONOISOTOPIC_WEIGHT>  (40) 
361.039058

>  <PUBCHEM_TOTAL_CHARGE>  (40) 
0

>  <PUBCHEM_HEAVY_ATOM_COUNT>  (40) 
13

>  <PUBCHEM_ATOM_DEF_STEREO_COUNT>  (40) 
0

>  <PUBCHEM_ATOM_UDEF_STEREO_COUNT>  (40) 
0

>  <PUBCHEM_BOND_DEF_STEREO_COUNT>  (40) 
0

>  <PUBCHEM_BOND_UDEF_STEREO_COUNT>  (40) 
0

>  <PUBCHEM_ISOTOPIC_ATOM_COUNT>  (40) 
0

>  <PUBCHEM_COMPONENT_COUNT>  (40) 
2

>  <PUBCHEM_CACTVS_TAUTO_COUNT>  (40) 
-1

>  <PUBCHEM_COORDINATE_TYPE>  (40) 
1
5
255

>  <PUBCHEM_BONDANNOTATIONS>  (40) 
11  12  8
3  12  8
3  5  8
4  5  8
4  6  8
4  7  8
5  8  8
6  9  8
7  11  8
8  10  8
9  10  8

$$$$
7321
     RDKit          2D

 13 13  0  0  0  0  0  0  0  0999 V2000
    5.1350    2.2500    0.0000 O   0  0  0  0  0  0  0  0  0  0  0  0
    3.4030    2.2500    0.0000 O   0  0  0  0  0  0  0  0  0  0  0  0
    6.0010   -2.2500    0.0000 O   0  0  0  0  0  0  0  0  0  0  0  0
    6.8671   -0.7500    0.0000 O   0  0  0  0  0  0  0  0  0  0  0  0
    4.2690    1.7500    0.0000 N   0  0  0  0  0  0  0  0  0  0  0  0
    2.5369    0.7500    0.0000 N   0  0  0  0  0  0  0  0  0  0  0  0
    6.0010   -1.2500    0.0000 N   0  0  0  0  0  0  0  0  0  0  0  0
    4.2690    0.7500    0.0000 C   0  0  0  0  0  0  0  0  0  0  0  0
    3.4030    0.2500    0.0000 C   0  0  0  0  0  0  0  0  0  0  0  0
    5.1350   -0.7500    0.0000 C   0  0  0  0  0  0  0  0  0  0  0  0
    5.1350    0.2500    0.0000 C   0  0  0  0  0  0  0  0  0  0  0  0
    3.4030   -0.7500    0.0000 C   0  0  0  0  0  0  0  0  0  0  0  0
    4.2690   -1.2500    0.0000 C   0  0  0  0  0  0  0  0  0  0  0  0
  1  5  1  0
  2  5  2  0
  3  7  1  0
  4  7  2  0
  5  8  1  0
  6  9  1  0
  7 10  1  0
  8  9  2  0
  8 11  1  0
  9 12  1  0
 10 11  2  0
 10 13  1  0
 12 13  2  0
M  CHG  4   1  -1   3  -1   5   1   7   1
M  END
>  <PUBCHEM_COMPOUND_CID>  (41) 
7321

>  <PUBCHEM_COMPOUND_CANONICALIZED>  (41) 
1

>  <PUBCHEM_CACTVS_COMPLEXITY>  (41) 
221

>  <PUBCHEM_CACTVS_HBOND_ACCEPTOR>  (41) 
5

>  <PUBCHEM_CACTVS_HBOND_DONOR>  (41) 
1

>  <PUBCHEM_CACTVS_ROTATABLE_BOND>  (41) 
0

>  <PUBCHEM_CACTVS_SUBSKEYS>  (41) 
AAADcYBjOAAAAAAAAAAAAAAAAAAAAAAAAAAwAAAAAAAAAAABAAAAHAAUAAAACAiBEAAwwIBQQACBACRCQwCCAAAgAgAoiAAAdIoIYCKA0dGAIABgkIAIyAcQAAAAAACAAAQAACAAAQAACAAAQAAAAAAAAA==

>  <PUBCHEM_IUPAC_OPENEYE_NAME>  (41) 
2,4-dinitroaniline

>  <PUBCHEM_IUPAC_CAS_NAME>  (41) 
2,4-dinitroaniline

>  <PUBCHEM_IUPAC_NAME_MARKUP>  (41) 
2,4-dinitroaniline

>  <PUBCHEM_IUPAC_NAME>  (41) 
2,4-dinitroaniline

>  <PUBCHEM_IUPAC_SYSTEMATIC_NAME>  (41) 
2,4-dinitroaniline

>  <PUBCHEM_IUPAC_TRADITIONAL_NAME>  (41) 
(2,4-dinitrophenyl)amine

>  <PUBCHEM_IUPAC_INCHI>  (41) 
InChI=1S/C6H5N3O4/c7-5-2-1-4(8(10)11)3-6(5)9(12)13/h1-3H,7H2

>  <PUBCHEM_IUPAC_INCHIKEY>  (41) 
LXQOQPGNCGEELI-UHFFFAOYSA-N

>  <PUBCHEM_XLOGP3>  (41) 
1

>  <PUBCHEM_EXACT_MASS>  (41) 
183.02800565

>  <PUBCHEM_MOLECULAR_FORMULA>  (41) 
C6H5N3O4

>  <PUBCHEM_MOLECULAR_WEIGHT>  (41) 
183.12

>  <PUBCHEM_SMILES>  (41) 
C1=CC(=C(C=C1[N+](=O)[O-])[N+](=O)[O-])N

>  <PUBCHEM_CONNECTIVITY_SMILES>  (41) 
C1=CC(=C(C=C1[N+](=O)[O-])[N+](=O)[O-])N

>  <PUBCHEM_CACTVS_TPSA>  (41) 
118

>  <PUBCHEM_MONOISOTOPIC_WEIGHT>  (41) 
183.02800565

>  <PUBCHEM_TOTAL_CHARGE>  (41) 
0

>  <PUBCHEM_HEAVY_ATOM_COUNT>  (41) 
13

>  <PUBCHEM_ATOM_DEF_STEREO_COUNT>  (41) 
0

>  <PUBCHEM_ATOM_UDEF_STEREO_COUNT>  (41) 
0

>  <PUBCHEM_BOND_DEF_STEREO_COUNT>  (41) 
0

>  <PUBCHEM_BOND_UDEF_STEREO_COUNT>  (41) 
0

>  <PUBCHEM_ISOTOPIC_ATOM_COUNT>  (41) 
0

>  <PUBCHEM_COMPONENT_COUNT>  (41) 
1

>  <PUBCHEM_CACTVS_TAUTO_COUNT>  (41) 
-1

>  <PUBCHEM_COORDINATE_TYPE>  (41) 
1
5
255

>  <PUBCHEM_BONDANNOTATIONS>  (41) 
10  11  8
10  13  8
12  13  8
5  8  1
8  11  8
8  9  8
9  12  8

$$$$
7616
     RDKit          2D

 10  9  0  0  0  0  0  0  0  0999 V2000
    4.5981    1.0000    0.0000 N   0  0  0  0  0  0  0  0  0  0  0  0
    5.4641    1.5000    0.0000 C   0  0  0  0  0  0  0  0  0  0  0  0
    3.7321    1.5000    0.0000 C   0  0  0  0  0  0  0  0  0  0  0  0
    4.5981    0.0000    0.0000 C   0  0  0  0  0  0  0  0  0  0  0  0
    6.3301    1.0000    0.0000 C   0  0  0  0  0  0  0  0  0  0  0  0
    2.8660    1.0000    0.0000 C   0  0  0  0  0  0  0  0  0  0  0  0
    3.7321   -0.5000    0.0000 C   0  0  0  0  0  0  0  0  0  0  0  0
    7.1962    1.5000    0.0000 C   0  0  0  0  0  0  0  0  0  0  0  0
    2.0000    1.5000    0.0000 C   0  0  0  0  0  0  0  0  0  0  0  0
    3.7321   -1.5000    0.0000 C   0  0  0  0  0  0  0  0  0  0  0  0
  1  2  1  0
  1  3  1  0
  1  4  1  0
  2  5  1  0
  3  6  1  0
  4  7  1  0
  5  8  1  0
  6  9  1  0
  7 10  1  0
M  END
>  <PUBCHEM_COMPOUND_CID>  (42) 
7616

>  <PUBCHEM_COMPOUND_CANONICALIZED>  (42) 
1

>  <PUBCHEM_CACTVS_COMPLEXITY>  (42) 
47.5

>  <PUBCHEM_CACTVS_HBOND_ACCEPTOR>  (42) 
1

>  <PUBCHEM_CACTVS_HBOND_DONOR>  (42) 
0

>  <PUBCHEM_CACTVS_ROTATABLE_BOND>  (42) 
6

>  <PUBCHEM_CACTVS_SUBSKEYS>  (42) 
AAADceByAAAAAAAAAAAAAAAAAAAAAAAAAAAAAAAAAAAAAAAAAAAAHAAAAAAACADBAAQCAAMAAAAAAAAAAAAAAAAAAAAAAAAIAAAAAAAAAAAEAAAAAACAAAAAAAAAAAAAAAAAAAAAAAAAAAAAAAAAAAAAAA==

>  <PUBCHEM_IUPAC_OPENEYE_NAME>  (42) 
N,N-dipropylpropan-1-amine

>  <PUBCHEM_IUPAC_CAS_NAME>  (42) 
N,N-dipropyl-1-propanamine

>  <PUBCHEM_IUPAC_NAME_MARKUP>  (42) 
<I>N</I>,<I>N</I>-dipropylpropan-1-amine

>  <PUBCHEM_IUPAC_NAME>  (42) 
N,N-dipropylpropan-1-amine

>  <PUBCHEM_IUPAC_SYSTEMATIC_NAME>  (42) 
N,N-dipropylpropan-1-amine

>  <PUBCHEM_IUPAC_TRADITIONAL_NAME>  (42) 
tripropylamine

>  <PUBCHEM_IUPAC_INCHI>  (42) 
InChI=1S/C9H21N/c1-4-7-10(8-5-2)9-6-3/h4-9H2,1-3H3

>  <PUBCHEM_IUPAC_INCHIKEY>  (42) 
YFTHZRPMJXBUME-UHFFFAOYSA-N

>  <PUBCHEM_XLOGP3>  (42) 
2.8

>  <PUBCHEM_EXACT_MASS>  (42) 
143.167399674

>  <PUBCHEM_MOLECULAR_FORMULA>  (42) 
C9H21N

>  <PUBCHEM_MOLECULAR_WEIGHT>  (42) 
143.27

>  <PUBCHEM_SMILES>  (42) 
CCCN(CCC)CCC

>  <PUBCHEM_CONNECTIVITY_SMILES>  (42) 
CCCN(CCC)CCC

>  <PUBCHEM_CACTVS_TPSA>  (42) 
3.2

>  <PUBCHEM_MONOISOTOPIC_WEIGHT>  (42) 
143.167399674

>  <PUBCHEM_TOTAL_CHARGE>  (42) 
0

>  <PUBCHEM_HEAVY_ATOM_COUNT>  (42) 
10

>  <PUBCHEM_ATOM_DEF_STEREO_COUNT>  (42) 
0

>  <PUBCHEM_ATOM_UDEF_STEREO_COUNT>  (42) 
0

>  <PUBCHEM_BOND_DEF_STEREO_COUNT>  (42) 
0

>  <PUBCHEM_BOND_UDEF_STEREO_COUNT>  (42) 
0

>  <PUBCHEM_ISOTOPIC_ATOM_COUNT>  (42) 
0

>  <PUBCHEM_COMPONENT_COUNT>  (42) 
1

>  <PUBCHEM_CACTVS_TAUTO_COUNT>  (42) 
-1

>  <PUBCHEM_COORDINATE_TYPE>  (42) 
1
5
255

$$$$
7847
     RDKit          2D

  4  3  0  0  0  0  0  0  0  0999 V2000
    2.0000    0.5600    0.0000 O   0  0  0  0  0  0  0  0  0  0  0  0
    3.7321    0.5600    0.0000 C   0  0  0  0  0  0  0  0  0  0  0  0
    2.8660    0.0600    0.0000 C   0  0  0  0  0  0  0  0  0  0  0  0
    4.5981    0.0600    0.0000 C   0  0  0  0  0  0  0  0  0  0  0  0
  1  3  2  0
  2  3  1  0
  2  4  2  0
M  END
>  <PUBCHEM_COMPOUND_CID>  (43) 
7847

>  <PUBCHEM_COMPOUND_CANONICALIZED>  (43) 
1

>  <PUBCHEM_CACTVS_COMPLEXITY>  (43) 
30.3

>  <PUBCHEM_CACTVS_HBOND_ACCEPTOR>  (43) 
1

>  <PUBCHEM_CACTVS_HBOND_DONOR>  (43) 
0

>  <PUBCHEM_CACTVS_ROTATABLE_BOND>  (43) 
1

>  <PUBCHEM_CACTVS_SUBSKEYS>  (43) 
AAADcYBAIAAAAAAAAAAAAAAAAAAAAAAAAAAAAAAAAAAAAAAAAAAAGgAAAAAACACggAIAAAAAAACIAChSgAAAAAAAAAAIAAAAAEAAAAAAAQAAAAAAAAAAAIAAAAAAAAAAAAAAAAAAAAAAAAAAAAAAAAAAAA==

>  <PUBCHEM_IUPAC_OPENEYE_NAME>  (43) 
prop-2-enal

>  <PUBCHEM_IUPAC_CAS_NAME>  (43) 
2-propenal

>  <PUBCHEM_IUPAC_NAME_MARKUP>  (43) 
prop-2-enal

>  <PUBCHEM_IUPAC_NAME>  (43) 
prop-2-enal

>  <PUBCHEM_IUPAC_SYSTEMATIC_NAME>  (43) 
prop-2-enal

>  <PUBCHEM_IUPAC_TRADITIONAL_NAME>  (43) 
acrolein

>  <PUBCHEM_IUPAC_INCHI>  (43) 
InChI=1S/C3H4O/c1-2-3-4/h2-3H,1H2

>  <PUBCHEM_IUPAC_INCHIKEY>  (43) 
HGINCPLSRVDWNT-UHFFFAOYSA-N

>  <PUBCHEM_XLOGP3>  (43) 
0

>  <PUBCHEM_EXACT_MASS>  (43) 
56.026214747

>  <PUBCHEM_MOLECULAR_FORMULA>  (43) 
C3H4O

>  <PUBCHEM_MOLECULAR_WEIGHT>  (43) 
56.06

>  <PUBCHEM_SMILES>  (43) 
C=CC=O

>  <PUBCHEM_CONNECTIVITY_SMILES>  (43) 
C=CC=O

>  <PUBCHEM_CACTVS_TPSA>  (43) 
17.1

>  <PUBCHEM_MONOISOTOPIC_WEIGHT>  (43) 
56.026214747

>  <PUBCHEM_TOTAL_CHARGE>  (43) 
0

>  <PUBCHEM_HEAVY_ATOM_COUNT>  (43) 
4

>  <PUBCHEM_ATOM_DEF_STEREO_COUNT>  (43) 
0

>  <PUBCHEM_ATOM_UDEF_STEREO_COUNT>  (43) 
0

>  <PUBCHEM_BOND_DEF_STEREO_COUNT>  (43) 
0

>  <PUBCHEM_BOND_UDEF_STEREO_COUNT>  (43) 
0

>  <PUBCHEM_ISOTOPIC_ATOM_COUNT>  (43) 
0

>  <PUBCHEM_COMPONENT_COUNT>  (43) 
1

>  <PUBCHEM_CACTVS_TAUTO_COUNT>  (43) 
-1

>  <PUBCHEM_COORDINATE_TYPE>  (43) 
1
5
255

$$$$
8722
     RDKit          2D

 13 10  0  0  0  0  0  0  0  0999 V2000
    5.4641   -0.2500    0.0000 Zn  0  0  0  0  0 15  0  0  0  0  0  0
    4.5981    0.2500    0.0000 S   0  0  0  0  0  0  0  0  0  0  0  0
    6.3301    0.2500    0.0000 S   0  0  0  0  0  0  0  0  0  0  0  0
    3.7321   -1.2500    0.0000 S   0  0  0  0  0  0  0  0  0  0  0  0
    7.1962   -1.2500    0.0000 S   0  0  0  0  0  0  0  0  0  0  0  0
    2.8660    0.2500    0.0000 N   0  0  0  0  0  0  0  0  0  0  0  0
    8.0622    0.2500    0.0000 N   0  0  0  0  0  0  0  0  0  0  0  0
    2.0000   -0.2500    0.0000 C   0  0  0  0  0  0  0  0  0  0  0  0
    2.8660    1.2500    0.0000 C   0  0  0  0  0  0  0  0  0  0  0  0
    8.9282   -0.2500    0.0000 C   0  0  0  0  0  0  0  0  0  0  0  0
    8.0622    1.2500    0.0000 C   0  0  0  0  0  0  0  0  0  0  0  0
    3.7321   -0.2500    0.0000 C   0  0  0  0  0  0  0  0  0  0  0  0
    7.1962   -0.2500    0.0000 C   0  0  0  0  0  0  0  0  0  0  0  0
  2 12  1  0
  3 13  1  0
  4 12  2  0
  5 13  2  0
  6  8  1  0
  6  9  1  0
  6 12  1  0
  7 10  1  0
  7 11  1  0
  7 13  1  0
M  CHG  3   1   2   2  -1   3  -1
M  END
>  <PUBCHEM_COMPOUND_CID>  (44) 
8722

>  <PUBCHEM_COMPOUND_CANONICALIZED>  (44) 
1

>  <PUBCHEM_CACTVS_COMPLEXITY>  (44) 
54.3

>  <PUBCHEM_CACTVS_HBOND_ACCEPTOR>  (44) 
4

>  <PUBCHEM_CACTVS_HBOND_DONOR>  (44) 
0

>  <PUBCHEM_CACTVS_ROTATABLE_BOND>  (44) 
0

>  <PUBCHEM_CACTVS_SUBSKEYS>  (44) 
AAADccBjAABwAAACAAAAAAAAAAAAAAAAAAAAAAAAAAAAAAAAAAAAFAQAAAAAAAAAAAQCAAMAAAAEAAAAAAAAAAAAAAgAAAAIAAAAAAAAAAAAAAAAAAAAAAAAAAAAAAAAAAAAAAAAAAAAAAAAAAAAAAAAAA==

>  <PUBCHEM_IUPAC_OPENEYE_NAME>  (44) 
zinc;N,N-dimethylcarbamodithioate

>  <PUBCHEM_IUPAC_CAS_NAME>  (44) 
zinc;N,N-dimethylcarbamodithioate

>  <PUBCHEM_IUPAC_NAME_MARKUP>  (44) 
zinc;<I>N</I>,<I>N</I>-dimethylcarbamodithioate

>  <PUBCHEM_IUPAC_NAME>  (44) 
zinc;N,N-dimethylcarbamodithioate

>  <PUBCHEM_IUPAC_SYSTEMATIC_NAME>  (44) 
zinc;N,N-dimethylcarbamodithioate

>  <PUBCHEM_IUPAC_TRADITIONAL_NAME>  (44) 
zinc;N,N-dimethylcarbamodithioate

>  <PUBCHEM_IUPAC_INCHI>  (44) 
InChI=1S/2C3H7NS2.Zn/c2*1-4(2)3(5)6;/h2*1-2H3,(H,5,6);/q;;+2/p-2

>  <PUBCHEM_IUPAC_INCHIKEY>  (44) 
DUBNHZYBDBBJHD-UHFFFAOYSA-L

>  <PUBCHEM_EXACT_MASS>  (44) 
303.917475

>  <PUBCHEM_MOLECULAR_FORMULA>  (44) 
C6H12N2S4Zn

>  <PUBCHEM_MOLECULAR_WEIGHT>  (44) 
305.8

>  <PUBCHEM_SMILES>  (44) 
CN(C)C(=S)[S-].CN(C)C(=S)[S-].[Zn+2]

>  <PUBCHEM_CONNECTIVITY_SMILES>  (44) 
CN(C)C(=S)[S-].CN(C)C(=S)[S-].[Zn+2]

>  <PUBCHEM_CACTVS_TPSA>  (44) 
72.7

>  <PUBCHEM_MONOISOTOPIC_WEIGHT>  (44) 
303.917475

>  <PUBCHEM_TOTAL_CHARGE>  (44) 
0

>  <PUBCHEM_HEAVY_ATOM_COUNT>  (44) 
13

>  <PUBCHEM_ATOM_DEF_STEREO_COUNT>  (44) 
0

>  <PUBCHEM_ATOM_UDEF_STEREO_COUNT>  (44) 
0

>  <PUBCHEM_BOND_DEF_STEREO_COUNT>  (44) 
0

>  <PUBCHEM_BOND_UDEF_STEREO_COUNT>  (44) 
0

>  <PUBCHEM_ISOTOPIC_ATOM_COUNT>  (44) 
0

>  <PUBCHEM_COMPONENT_COUNT>  (44) 
3

>  <PUBCHEM_CACTVS_TAUTO_COUNT>  (44) 
-1

>  <PUBCHEM_COORDINATE_TYPE>  (44) 
1
5
255

$$$$
8734
     RDKit          2D

 18 19  0  0  0  0  0  0  0  0999 V2000
    5.4641   -0.2500    0.0000 S   0  0  0  0  0  0  0  0  0  0  0  0
    3.7320   -0.2500    0.0000 N   0  0  0  0  0  0  0  0  0  0  0  0
    4.5981    1.2500    0.0000 N   0  0  0  0  0  0  0  0  0  0  0  0
    3.7320   -1.2500    0.0000 C   0  0  0  0  0  0  0  0  0  0  0  0
    2.8660   -1.7500    0.0000 C   0  0  0  0  0  0  0  0  0  0  0  0
    5.4641    2.7500    0.0000 C   0  0  0  0  0  0  0  0  0  0  0  0
    5.4641    1.7500    0.0000 C   0  0  0  0  0  0  0  0  0  0  0  0
    4.5981   -1.7500    0.0000 C   0  0  0  0  0  0  0  0  0  0  0  0
    2.8660   -2.7500    0.0000 C   0  0  0  0  0  0  0  0  0  0  0  0
    2.0000   -1.2500    0.0000 C   0  0  0  0  0  0  0  0  0  0  0  0
    4.5981   -2.7500    0.0000 C   0  0  0  0  0  0  0  0  0  0  0  0
    3.7320   -3.2500    0.0000 C   0  0  0  0  0  0  0  0  0  0  0  0
    6.3301    3.2500    0.0000 C   0  0  0  0  0  0  0  0  0  0  0  0
    6.3301    1.2500    0.0000 C   0  0  0  0  0  0  0  0  0  0  0  0
    4.5981    0.2500    0.0000 C   0  0  0  0  0  0  0  0  0  0  0  0
    4.5981    3.2500    0.0000 C   0  0  0  0  0  0  0  0  0  0  0  0
    7.1962    2.7500    0.0000 C   0  0  0  0  0  0  0  0  0  0  0  0
    7.1962    1.7500    0.0000 C   0  0  0  0  0  0  0  0  0  0  0  0
  1 15  1  0
  2  4  1  0
  2 15  1  0
  3  7  1  0
  3 15  2  0
  4  5  2  0
  4  8  1  0
  5  9  1  0
  5 10  1  0
  6  7  2  0
  6 13  1  0
  6 16  1  0
  7 14  1  0
  8 11  2  0
  9 12  2  0
 11 12  1  0
 13 17  2  0
 14 18  2  0
 17 18  1  0
M  END
>  <PUBCHEM_COMPOUND_CID>  (45) 
8734

>  <PUBCHEM_COMPOUND_CANONICALIZED>  (45) 
1

>  <PUBCHEM_CACTVS_COMPLEXITY>  (45) 
290

>  <PUBCHEM_CACTVS_HBOND_ACCEPTOR>  (45) 
2

>  <PUBCHEM_CACTVS_HBOND_DONOR>  (45) 
2

>  <PUBCHEM_CACTVS_ROTATABLE_BOND>  (45) 
3

>  <PUBCHEM_CACTVS_SUBSKEYS>  (45) 
AAADceBzAABAAAAAAAAAAAAAAAAAAAAAAAAwYAAAAAAAAAABQAAAHAQQAAAADAiBGAAzwILAAASgAiRCZACCEAEhAgAJiAAAZIgIICLAmZGEIAhgkABIyAcQgAAOAAAAAAACAAAAAAAAAAQAAAAAAAAAAA==

>  <PUBCHEM_IUPAC_OPENEYE_NAME>  (45) 
1,3-bis(o-tolyl)isothiourea

>  <PUBCHEM_IUPAC_CAS_NAME>  (45) 
N,N'-bis(2-methylphenyl)carbamimidothioic acid

>  <PUBCHEM_IUPAC_NAME_MARKUP>  (45) 
<I>N</I>,<I>N</I>&apos;-bis(2-methylphenyl)carbamimidothioic acid

>  <PUBCHEM_IUPAC_NAME>  (45) 
N,N'-bis(2-methylphenyl)carbamimidothioic acid

>  <PUBCHEM_IUPAC_SYSTEMATIC_NAME>  (45) 
N,N'-bis(2-methylphenyl)carbamimidothioic acid

>  <PUBCHEM_IUPAC_TRADITIONAL_NAME>  (45) 
1,3-bis(o-tolyl)isothiourea

>  <PUBCHEM_IUPAC_INCHI>  (45) 
InChI=1S/C15H16N2S/c1-11-7-3-5-9-13(11)16-15(18)17-14-10-6-4-8-12(14)2/h3-10H,1-2H3,(H2,16,17,18)

>  <PUBCHEM_IUPAC_INCHIKEY>  (45) 
KWPNNZKRAQDVPZ-UHFFFAOYSA-N

>  <PUBCHEM_XLOGP3_AA>  (45) 
4.2

>  <PUBCHEM_EXACT_MASS>  (45) 
256.10341969

>  <PUBCHEM_MOLECULAR_FORMULA>  (45) 
C15H16N2S

>  <PUBCHEM_MOLECULAR_WEIGHT>  (45) 
256.4

>  <PUBCHEM_SMILES>  (45) 
CC1=CC=CC=C1NC(=NC2=CC=CC=C2C)S

>  <PUBCHEM_CONNECTIVITY_SMILES>  (45) 
CC1=CC=CC=C1NC(=NC2=CC=CC=C2C)S

>  <PUBCHEM_CACTVS_TPSA>  (45) 
25.4

>  <PUBCHEM_MONOISOTOPIC_WEIGHT>  (45) 
256.10341969

>  <PUBCHEM_TOTAL_CHARGE>  (45) 
0

>  <PUBCHEM_HEAVY_ATOM_COUNT>  (45) 
18

>  <PUBCHEM_ATOM_DEF_STEREO_COUNT>  (45) 
0

>  <PUBCHEM_ATOM_UDEF_STEREO_COUNT>  (45) 
0

>  <PUBCHEM_BOND_DEF_STEREO_COUNT>  (45) 
0

>  <PUBCHEM_BOND_UDEF_STEREO_COUNT>  (45) 
0

>  <PUBCHEM_ISOTOPIC_ATOM_COUNT>  (45) 
0

>  <PUBCHEM_COMPONENT_COUNT>  (45) 
1

>  <PUBCHEM_CACTVS_TAUTO_COUNT>  (45) 
-1

>  <PUBCHEM_COORDINATE_TYPE>  (45) 
1
5
255

>  <PUBCHEM_BONDANNOTATIONS>  (45) 
11  12  8
13  17  8
14  18  8
17  18  8
4  5  8
4  8  8
5  9  8
6  13  8
6  7  8
7  14  8
8  11  8
9  12  8

$$$$
8893
     RDKit          2D

  8  6  0  0  0  0  0  0  0  0999 V2000
    0.0000    2.6200    0.0000 Cl  0  0  0  0  0  0  0  0  0  0  0  0
    3.9766    0.0000    0.0000 Cl  0  0  0  0  0  0  0  0  0  0  0  0
    4.4766    3.1200    0.0000 N   0  0  0  0  0  0  0  0  0  0  0  0
    4.4766    5.1200    0.0000 N   0  0  0  0  0  0  0  0  0  0  0  0
    5.3426    4.6200    0.0000 C   0  0  0  0  0  0  0  0  0  0  0  0
    5.3426    3.6200    0.0000 C   0  0  0  0  0  0  0  0  0  0  0  0
    3.6106    4.6200    0.0000 C   0  0  0  0  0  0  0  0  0  0  0  0
    3.6106    3.6200    0.0000 C   0  0  0  0  0  0  0  0  0  0  0  0
  3  6  1  0
  3  8  1  0
  4  5  1  0
  4  7  1  0
  5  6  1  0
  7  8  1  0
M  END
>  <PUBCHEM_COMPOUND_CID>  (46) 
8893

>  <PUBCHEM_COMPOUND_CANONICALIZED>  (46) 
1

>  <PUBCHEM_CACTVS_COMPLEXITY>  (46) 
26.5

>  <PUBCHEM_CACTVS_HBOND_ACCEPTOR>  (46) 
2

>  <PUBCHEM_CACTVS_HBOND_DONOR>  (46) 
4

>  <PUBCHEM_CACTVS_ROTATABLE_BOND>  (46) 
0

>  <PUBCHEM_CACTVS_SUBSKEYS>  (46) 
AAADccBjAAAGAAAAAAAAAAAAAAAAAAAAAAAsAAAAAAAAAAAAAAAAHAAQAAAAAADBAAQAAALAAAAAAAAAAAAAAAAAAAAAAIAIAAAAQAAAAAAQAAAAEACAAAAAAAAAAAAAAAAAAAAAAAAAAAAAAAAAAAAAAA==

>  <PUBCHEM_IUPAC_OPENEYE_NAME>  (46) 
piperazine;dihydrochloride

>  <PUBCHEM_IUPAC_CAS_NAME>  (46) 
piperazine;dihydrochloride

>  <PUBCHEM_IUPAC_NAME_MARKUP>  (46) 
piperazine;dihydrochloride

>  <PUBCHEM_IUPAC_NAME>  (46) 
piperazine;dihydrochloride

>  <PUBCHEM_IUPAC_SYSTEMATIC_NAME>  (46) 
piperazine;dihydrochloride

>  <PUBCHEM_IUPAC_TRADITIONAL_NAME>  (46) 
piperazine;dihydrochloride

>  <PUBCHEM_IUPAC_INCHI>  (46) 
InChI=1S/C4H10N2.2ClH/c1-2-6-4-3-5-1;;/h5-6H,1-4H2;2*1H

>  <PUBCHEM_IUPAC_INCHIKEY>  (46) 
CVVIJWRCGSYCMB-UHFFFAOYSA-N

>  <PUBCHEM_EXACT_MASS>  (46) 
158.0377538

>  <PUBCHEM_MOLECULAR_FORMULA>  (46) 
C4H12Cl2N2

>  <PUBCHEM_MOLECULAR_WEIGHT>  (46) 
159.05

>  <PUBCHEM_SMILES>  (46) 
C1CNCCN1.Cl.Cl

>  <PUBCHEM_CONNECTIVITY_SMILES>  (46) 
C1CNCCN1.Cl.Cl

>  <PUBCHEM_CACTVS_TPSA>  (46) 
24.1

>  <PUBCHEM_MONOISOTOPIC_WEIGHT>  (46) 
158.0377538

>  <PUBCHEM_TOTAL_CHARGE>  (46) 
0

>  <PUBCHEM_HEAVY_ATOM_COUNT>  (46) 
8

>  <PUBCHEM_ATOM_DEF_STEREO_COUNT>  (46) 
0

>  <PUBCHEM_ATOM_UDEF_STEREO_COUNT>  (46) 
0

>  <PUBCHEM_BOND_DEF_STEREO_COUNT>  (46) 
0

>  <PUBCHEM_BOND_UDEF_STEREO_COUNT>  (46) 
0

>  <PUBCHEM_ISOTOPIC_ATOM_COUNT>  (46) 
0

>  <PUBCHEM_COMPONENT_COUNT>  (46) 
3

>  <PUBCHEM_CACTVS_TAUTO_COUNT>  (46) 
-1

>  <PUBCHEM_COORDINATE_TYPE>  (46) 
1
5
255

$$$$
9191
     RDKit          2D

 14 16  0  0  0  0  0  0  0  0999 V2000
    4.6500    1.2742    0.0000 N   0  0  0  0  0  0  0  0  0  0  0  0
    3.8000   -0.2673    0.0000 C   0  0  0  0  0  0  0  0  0  0  0  0
    4.6660    0.2327    0.0000 C   0  0  0  0  0  0  0  0  0  0  0  0
    3.8000   -1.2673    0.0000 C   0  0  0  0  0  0  0  0  0  0  0  0
    5.5321   -0.2673    0.0000 C   0  0  0  0  0  0  0  0  0  0  0  0
    4.6660   -1.7673    0.0000 C   0  0  0  0  0  0  0  0  0  0  0  0
    5.5321   -1.2673    0.0000 C   0  0  0  0  0  0  0  0  0  0  0  0
    2.9061    0.2674    0.0000 C   0  0  0  0  0  0  0  0  0  0  0  0
    2.9061   -1.8020    0.0000 C   0  0  0  0  0  0  0  0  0  0  0  0
    6.4421    0.2395    0.0000 C   0  0  0  0  0  0  0  0  0  0  0  0
    2.0000   -0.2465    0.0000 C   0  0  0  0  0  0  0  0  0  0  0  0
    2.0000   -1.2881    0.0000 C   0  0  0  0  0  0  0  0  0  0  0  0
    6.4501    1.2812    0.0000 C   0  0  0  0  0  0  0  0  0  0  0  0
    5.5480    1.8020    0.0000 C   0  0  0  0  0  0  0  0  0  0  0  0
  1  3  2  0
  1 14  1  0
  2  3  1  0
  2  4  2  0
  2  8  1  0
  3  5  1  0
  4  6  1  0
  4  9  1  0
  5  7  1  0
  5 10  2  0
  6  7  2  0
  8 11  2  0
  9 12  2  0
 10 13  1  0
 11 12  1  0
 13 14  2  0
M  END
>  <PUBCHEM_COMPOUND_CID>  (47) 
9191

>  <PUBCHEM_COMPOUND_CANONICALIZED>  (47) 
1

>  <PUBCHEM_CACTVS_COMPLEXITY>  (47) 
201

>  <PUBCHEM_CACTVS_HBOND_ACCEPTOR>  (47) 
1

>  <PUBCHEM_CACTVS_HBOND_DONOR>  (47) 
0

>  <PUBCHEM_CACTVS_ROTATABLE_BOND>  (47) 
0

>  <PUBCHEM_CACTVS_SUBSKEYS>  (47) 
AAADccByAAAAAAAAAAAAAAAAAAAAAAAAAAA8YIAAAAAAAADx9AAAHAAAAAAADAjBHgQ8wPIIEACgAzRnRACCgCAxAiAI2CA4ZJgIIOLAkZGEIAhggADIyAcQgMAOwAACQAASAACAAASAACQAAAAAAAAAAA==

>  <PUBCHEM_IUPAC_OPENEYE_NAME>  (47) 
benzo[h]quinoline

>  <PUBCHEM_IUPAC_CAS_NAME>  (47) 
benzo[h]quinoline

>  <PUBCHEM_IUPAC_NAME_MARKUP>  (47) 
benzo[h]quinoline

>  <PUBCHEM_IUPAC_NAME>  (47) 
benzo[h]quinoline

>  <PUBCHEM_IUPAC_SYSTEMATIC_NAME>  (47) 
benzo[h]quinoline

>  <PUBCHEM_IUPAC_TRADITIONAL_NAME>  (47) 
benzo[h]quinoline

>  <PUBCHEM_IUPAC_INCHI>  (47) 
InChI=1S/C13H9N/c1-2-6-12-10(4-1)7-8-11-5-3-9-14-13(11)12/h1-9H

>  <PUBCHEM_IUPAC_INCHIKEY>  (47) 
WZJYKHNJTSNBHV-UHFFFAOYSA-N

>  <PUBCHEM_XLOGP3_AA>  (47) 
3.4

>  <PUBCHEM_EXACT_MASS>  (47) 
179.073499291

>  <PUBCHEM_MOLECULAR_FORMULA>  (47) 
C13H9N

>  <PUBCHEM_MOLECULAR_WEIGHT>  (47) 
179.22

>  <PUBCHEM_SMILES>  (47) 
C1=CC=C2C(=C1)C=CC3=C2N=CC=C3

>  <PUBCHEM_CONNECTIVITY_SMILES>  (47) 
C1=CC=C2C(=C1)C=CC3=C2N=CC=C3

>  <PUBCHEM_CACTVS_TPSA>  (47) 
12.9

>  <PUBCHEM_MONOISOTOPIC_WEIGHT>  (47) 
179.073499291

>  <PUBCHEM_TOTAL_CHARGE>  (47) 
0

>  <PUBCHEM_HEAVY_ATOM_COUNT>  (47) 
14

>  <PUBCHEM_ATOM_DEF_STEREO_COUNT>  (47) 
0

>  <PUBCHEM_ATOM_UDEF_STEREO_COUNT>  (47) 
0

>  <PUBCHEM_BOND_DEF_STEREO_COUNT>  (47) 
0

>  <PUBCHEM_BOND_UDEF_STEREO_COUNT>  (47) 
0

>  <PUBCHEM_ISOTOPIC_ATOM_COUNT>  (47) 
0

>  <PUBCHEM_COMPONENT_COUNT>  (47) 
1

>  <PUBCHEM_CACTVS_TAUTO_COUNT>  (47) 
-1

>  <PUBCHEM_COORDINATE_TYPE>  (47) 
1
5
255

>  <PUBCHEM_BONDANNOTATIONS>  (47) 
1  14  8
1  3  8
10  13  8
11  12  8
13  14  8
2  3  8
2  4  8
2  8  8
3  5  8
4  6  8
4  9  8
5  10  8
5  7  8
6  7  8
8  11  8
9  12  8

$$$$
985
     RDKit          2D

 18 17  0  0  0  0  0  0  0  0999 V2000
    2.5369    0.7500    0.0000 O   0  0  0  0  0  0  0  0  0  0  0  0
    3.4030   -0.7500    0.0000 O   0  0  0  0  0  0  0  0  0  0  0  0
   10.3312    0.2500    0.0000 C   0  0  0  0  0  0  0  0  0  0  0  0
    9.4651    0.7500    0.0000 C   0  0  0  0  0  0  0  0  0  0  0  0
   11.1972    0.7500    0.0000 C   0  0  0  0  0  0  0  0  0  0  0  0
    8.5991    0.2500    0.0000 C   0  0  0  0  0  0  0  0  0  0  0  0
   12.0632    0.2500    0.0000 C   0  0  0  0  0  0  0  0  0  0  0  0
    7.7331    0.7500    0.0000 C   0  0  0  0  0  0  0  0  0  0  0  0
   12.9292    0.7500    0.0000 C   0  0  0  0  0  0  0  0  0  0  0  0
    6.8671    0.2500    0.0000 C   0  0  0  0  0  0  0  0  0  0  0  0
   13.7953    0.2500    0.0000 C   0  0  0  0  0  0  0  0  0  0  0  0
    6.0010    0.7500    0.0000 C   0  0  0  0  0  0  0  0  0  0  0  0
   14.6613    0.7500    0.0000 C   0  0  0  0  0  0  0  0  0  0  0  0
    5.1350    0.2500    0.0000 C   0  0  0  0  0  0  0  0  0  0  0  0
   15.5273    0.2500    0.0000 C   0  0  0  0  0  0  0  0  0  0  0  0
    4.2690    0.7500    0.0000 C   0  0  0  0  0  0  0  0  0  0  0  0
   16.3933    0.7500    0.0000 C   0  0  0  0  0  0  0  0  0  0  0  0
    3.4030    0.2500    0.0000 C   0  0  0  0  0  0  0  0  0  0  0  0
  1 18  1  0
  2 18  2  0
  3  4  1  0
  3  5  1  0
  4  6  1  0
  5  7  1  0
  6  8  1  0
  7  9  1  0
  8 10  1  0
  9 11  1  0
 10 12  1  0
 11 13  1  0
 12 14  1  0
 13 15  1  0
 14 16  1  0
 15 17  1  0
 16 18  1  0
M  END
>  <PUBCHEM_COMPOUND_CID>  (48) 
985

>  <PUBCHEM_COMPOUND_CANONICALIZED>  (48) 
1

>  <PUBCHEM_CACTVS_COMPLEXITY>  (48) 
178

>  <PUBCHEM_CACTVS_HBOND_ACCEPTOR>  (48) 
2

>  <PUBCHEM_CACTVS_HBOND_DONOR>  (48) 
1

>  <PUBCHEM_CACTVS_ROTATABLE_BOND>  (48) 
14

>  <PUBCHEM_CACTVS_SUBSKEYS>  (48) 
AAADcfB4MAAAAAAAAAAAAAAAAAAAAAAAAAAAAAAAAAAAAAAAAAAAGgAACAAACACAgAACCAAAAgAIAACQCAAAAAAAAAAAAAEAAAAAABIAAAAAQAAEAAAAAAGIyKCAAAAAAAAAAAAAAAAAAAAAAAAAAAAAAA==

>  <PUBCHEM_IUPAC_OPENEYE_NAME>  (48) 
palmitic acid

>  <PUBCHEM_IUPAC_CAS_NAME>  (48) 
hexadecanoic acid

>  <PUBCHEM_IUPAC_NAME_MARKUP>  (48) 
hexadecanoic acid

>  <PUBCHEM_IUPAC_NAME>  (48) 
hexadecanoic acid

>  <PUBCHEM_IUPAC_SYSTEMATIC_NAME>  (48) 
hexadecanoic acid

>  <PUBCHEM_IUPAC_TRADITIONAL_NAME>  (48) 
palmitic acid

>  <PUBCHEM_IUPAC_INCHI>  (48) 
InChI=1S/C16H32O2/c1-2-3-4-5-6-7-8-9-10-11-12-13-14-15-16(17)18/h2-15H2,1H3,(H,17,18)

>  <PUBCHEM_IUPAC_INCHIKEY>  (48) 
IPCSVZSSVZVIGE-UHFFFAOYSA-N

>  <PUBCHEM_XLOGP3>  (48) 
6.4

>  <PUBCHEM_EXACT_MASS>  (48) 
256.240230259

>  <PUBCHEM_MOLECULAR_FORMULA>  (48) 
C16H32O2

>  <PUBCHEM_MOLECULAR_WEIGHT>  (48) 
256.42

>  <PUBCHEM_SMILES>  (48) 
CCCCCCCCCCCCCCCC(=O)O

>  <PUBCHEM_CONNECTIVITY_SMILES>  (48) 
CCCCCCCCCCCCCCCC(=O)O

>  <PUBCHEM_CACTVS_TPSA>  (48) 
37.3

>  <PUBCHEM_MONOISOTOPIC_WEIGHT>  (48) 
256.240230259

>  <PUBCHEM_TOTAL_CHARGE>  (48) 
0

>  <PUBCHEM_HEAVY_ATOM_COUNT>  (48) 
18

>  <PUBCHEM_ATOM_DEF_STEREO_COUNT>  (48) 
0

>  <PUBCHEM_ATOM_UDEF_STEREO_COUNT>  (48) 
0

>  <PUBCHEM_BOND_DEF_STEREO_COUNT>  (48) 
0

>  <PUBCHEM_BOND_UDEF_STEREO_COUNT>  (48) 
0

>  <PUBCHEM_ISOTOPIC_ATOM_COUNT>  (48) 
0

>  <PUBCHEM_COMPONENT_COUNT>  (48) 
1

>  <PUBCHEM_CACTVS_TAUTO_COUNT>  (48) 
-1

>  <PUBCHEM_COORDINATE_TYPE>  (48) 
1
5
255

$$$$
9992
     RDKit          2D

  8  7  0  0  0  0  0  0  0  0999 V2000
    7.1962    0.2500    0.0000 F   0  0  0  0  0  0  0  0  0  0  0  0
    2.0000    0.2500    0.0000 F   0  0  0  0  0  0  0  0  0  0  0  0
    4.5981    0.7500    0.0000 O   0  0  0  0  0  0  0  0  0  0  0  0
    3.7320   -0.7500    0.0000 O   0  0  0  0  0  0  0  0  0  0  0  0
    5.4641    0.2500    0.0000 C   0  0  0  0  0  0  0  0  0  0  0  0
    6.3301    0.7500    0.0000 C   0  0  0  0  0  0  0  0  0  0  0  0
    3.7320    0.2500    0.0000 C   0  0  0  0  0  0  0  0  0  0  0  0
    2.8660    0.7500    0.0000 C   0  0  0  0  0  0  0  0  0  0  0  0
  1  6  1  0
  2  8  1  0
  3  5  1  0
  3  7  1  0
  4  7  2  0
  5  6  1  0
  7  8  1  0
M  END
>  <PUBCHEM_COMPOUND_CID>  (49) 
9992

>  <PUBCHEM_COMPOUND_CANONICALIZED>  (49) 
1

>  <PUBCHEM_CACTVS_COMPLEXITY>  (49) 
74.4

>  <PUBCHEM_CACTVS_HBOND_ACCEPTOR>  (49) 
4

>  <PUBCHEM_CACTVS_HBOND_DONOR>  (49) 
0

>  <PUBCHEM_CACTVS_ROTATABLE_BOND>  (49) 
4

>  <PUBCHEM_CACTVS_SUBSKEYS>  (49) 
AAADcYBgMYAAAAAAAAAAAAAAAAAAAAAAAAAAAAAAAAAAAAAAAAAAGwAAAAAAAACggAIACAAABAAIAACQCAAAAAAAAAAAAAAAAAAAAAAAAAACAAAAAAAAAAAAAAAAAAAAAAAAAAAAAAAAAAAAAAAAAAAAAA==

>  <PUBCHEM_IUPAC_OPENEYE_NAME>  (49) 
2-fluoroethyl 2-fluoroacetate

>  <PUBCHEM_IUPAC_CAS_NAME>  (49) 
2-fluoroacetic acid 2-fluoroethyl ester

>  <PUBCHEM_IUPAC_NAME_MARKUP>  (49) 
2-fluoroethyl 2-fluoroacetate

>  <PUBCHEM_IUPAC_NAME>  (49) 
2-fluoroethyl 2-fluoroacetate

>  <PUBCHEM_IUPAC_SYSTEMATIC_NAME>  (49) 
2-fluoranylethyl 2-fluoranylethanoate

>  <PUBCHEM_IUPAC_TRADITIONAL_NAME>  (49) 
2-fluoroacetic acid 2-fluoroethyl ester

>  <PUBCHEM_IUPAC_INCHI>  (49) 
InChI=1S/C4H6F2O2/c5-1-2-8-4(7)3-6/h1-3H2

>  <PUBCHEM_IUPAC_INCHIKEY>  (49) 
ZIJVALRYXQXDOL-UHFFFAOYSA-N

>  <PUBCHEM_XLOGP3_AA>  (49) 
0.8

>  <PUBCHEM_EXACT_MASS>  (49) 
124.03358575

>  <PUBCHEM_MOLECULAR_FORMULA>  (49) 
C4H6F2O2

>  <PUBCHEM_MOLECULAR_WEIGHT>  (49) 
124.09

>  <PUBCHEM_SMILES>  (49) 
C(CF)OC(=O)CF

>  <PUBCHEM_CONNECTIVITY_SMILES>  (49) 
C(CF)OC(=O)CF

>  <PUBCHEM_CACTVS_TPSA>  (49) 
26.3

>  <PUBCHEM_MONOISOTOPIC_WEIGHT>  (49) 
124.03358575

>  <PUBCHEM_TOTAL_CHARGE>  (49) 
0

>  <PUBCHEM_HEAVY_ATOM_COUNT>  (49) 
8

>  <PUBCHEM_ATOM_DEF_STEREO_COUNT>  (49) 
0

>  <PUBCHEM_ATOM_UDEF_STEREO_COUNT>  (49) 
0

>  <PUBCHEM_BOND_DEF_STEREO_COUNT>  (49) 
0

>  <PUBCHEM_BOND_UDEF_STEREO_COUNT>  (49) 
0

>  <PUBCHEM_ISOTOPIC_ATOM_COUNT>  (49) 
0

>  <PUBCHEM_COMPONENT_COUNT>  (49) 
1

>  <PUBCHEM_CACTVS_TAUTO_COUNT>  (49) 
-1

>  <PUBCHEM_COORDINATE_TYPE>  (49) 
1
5
255

$$$$
9996
     RDKit          2D

  4  3  0  0  0  0  0  0  0  0999 V2000
    2.0000    0.5600    0.0000 F   0  0  0  0  0  0  0  0  0  0  0  0
    4.5981    0.0600    0.0000 N   0  0  0  0  0  0  0  0  0  0  0  0
    3.7321    0.5600    0.0000 C   0  0  0  0  0  0  0  0  0  0  0  0
    2.8660    0.0600    0.0000 C   0  0  0  0  0  0  0  0  0  0  0  0
  1  4  1  0
  2  3  1  0
  3  4  1  0
M  END
>  <PUBCHEM_COMPOUND_CID>  (50) 
9996

>  <PUBCHEM_COMPOUND_CANONICALIZED>  (50) 
1

>  <PUBCHEM_CACTVS_COMPLEXITY>  (50) 
10

>  <PUBCHEM_CACTVS_HBOND_ACCEPTOR>  (50) 
2

>  <PUBCHEM_CACTVS_HBOND_DONOR>  (50) 
1

>  <PUBCHEM_CACTVS_ROTATABLE_BOND>  (50) 
1

>  <PUBCHEM_CACTVS_SUBSKEYS>  (50) 
AAADcYBCAQAAAAAAAAAAAAAAAAAAAAAAAAAAAAAAAAAAAAAAAAAAHQAQAAAAAADBAAQAAABAAAAAAAAAAAAAAAAAAAAAAIAAAAAAAAAAAAAAAAAAEAAAAAAAAAAAAAAAAAAAAAAAAAAAAAAAAAAAAAAAAA==

>  <PUBCHEM_IUPAC_OPENEYE_NAME>  (50) 
2-fluoroethanamine

>  <PUBCHEM_IUPAC_CAS_NAME>  (50) 
2-fluoroethanamine

>  <PUBCHEM_IUPAC_NAME_MARKUP>  (50) 
2-fluoroethanamine

>  <PUBCHEM_IUPAC_NAME>  (50) 
2-fluoroethanamine

>  <PUBCHEM_IUPAC_SYSTEMATIC_NAME>  (50) 
2-fluoranylethanamine

>  <PUBCHEM_IUPAC_TRADITIONAL_NAME>  (50) 
2-fluoroethylamine

>  <PUBCHEM_IUPAC_INCHI>  (50) 
InChI=1S/C2H6FN/c3-1-2-4/h1-2,4H2

>  <PUBCHEM_IUPAC_INCHIKEY>  (50) 
FURHRJBOFNDYTG-UHFFFAOYSA-N

>  <PUBCHEM_XLOGP3_AA>  (50) 
-0.4

>  <PUBCHEM_EXACT_MASS>  (50) 
63.048427358

>  <PUBCHEM_MOLECULAR_FORMULA>  (50) 
C2H6FN

>  <PUBCHEM_MOLECULAR_WEIGHT>  (50) 
63.07

>  <PUBCHEM_SMILES>  (50) 
C(CF)N

>  <PUBCHEM_CONNECTIVITY_SMILES>  (50) 
C(CF)N

>  <PUBCHEM_CACTVS_TPSA>  (50) 
26

>  <PUBCHEM_MONOISOTOPIC_WEIGHT>  (50) 
63.048427358

>  <PUBCHEM_TOTAL_CHARGE>  (50) 
0

>  <PUBCHEM_HEAVY_ATOM_COUNT>  (50) 
4

>  <PUBCHEM_ATOM_DEF_STEREO_COUNT>  (50) 
0

>  <PUBCHEM_ATOM_UDEF_STEREO_COUNT>  (50) 
0

>  <PUBCHEM_BOND_DEF_STEREO_COUNT>  (50) 
0

>  <PUBCHEM_BOND_UDEF_STEREO_COUNT>  (50) 
0

>  <PUBCHEM_ISOTOPIC_ATOM_COUNT>  (50) 
0

>  <PUBCHEM_COMPONENT_COUNT>  (50) 
1

>  <PUBCHEM_CACTVS_TAUTO_COUNT>  (50) 
-1

>  <PUBCHEM_COORDINATE_TYPE>  (50) 
1
5
255

$$$$
